11095862
  -OEChem-04292122153D

 27 28  0     0  0  0  0  0  0999 V2000
    1.2245    2.3162    0.0017 O   0  0  0  0  0  0  0  0  0  0  0  0
   -0.0475    0.3703    0.0004 N   0  0  0  0  0  0  0  0  0  0  0  0
    2.3731    0.2727    0.0002 C   0  0  0  0  0  0  0  0  0  0  0  0
   -2.4668    0.3312    0.0003 C   0  0  0  0  0  0  0  0  0  0  0  0
    2.2608   -1.0993    0.0003 C   0  0  0  0  0  0  0  0  0  0  0  0
    3.5882    0.9194   -0.0006 C   0  0  0  0  0  0  0  0  0  0  0  0
   -3.6487    1.0720   -0.0013 C   0  0  0  0  0  0  0  0  0  0  0  0
   -2.5174   -1.0628    0.0014 C   0  0  0  0  0  0  0  0  0  0  0  0
    1.1267    1.0922    0.0002 C   0  0  0  0  0  0  0  0  0  0  0  0
   -1.1819    1.0122    0.0004 C   0  0  0  0  0  0  0  0  0  0  0  0
    3.4261   -1.8657    0.0001 C   0  0  0  0  0  0  0  0  0  0  0  0
    4.7536    0.1529   -0.0010 C   0  0  0  0  0  0  0  0  0  0  0  0
   -4.8812    0.4189   -0.0016 C   0  0  0  0  0  0  0  0  0  0  0  0
   -3.7500   -1.7158    0.0009 C   0  0  0  0  0  0  0  0  0  0  0  0
    4.6725   -1.2397   -0.0007 C   0  0  0  0  0  0  0  0  0  0  0  0
   -4.9319   -0.9749   -0.0005 C   0  0  0  0  0  0  0  0  0  0  0  0
    1.3101   -1.6223    0.0008 H   0  0  0  0  0  0  0  0  0  0  0  0
    3.6745    2.0015   -0.0009 H   0  0  0  0  0  0  0  0  0  0  0  0
   -3.6257    2.1587   -0.0023 H   0  0  0  0  0  0  0  0  0  0  0  0
   -1.6135   -1.6661    0.0025 H   0  0  0  0  0  0  0  0  0  0  0  0
   -1.2075    2.1169    0.0001 H   0  0  0  0  0  0  0  0  0  0  0  0
    3.3637   -2.9501    0.0002 H   0  0  0  0  0  0  0  0  0  0  0  0
    5.7243    0.6400   -0.0016 H   0  0  0  0  0  0  0  0  0  0  0  0
   -5.8015    0.9956   -0.0027 H   0  0  0  0  0  0  0  0  0  0  0  0
   -3.7899   -2.8012    0.0017 H   0  0  0  0  0  0  0  0  0  0  0  0
    5.5799   -1.8365   -0.0010 H   0  0  0  0  0  0  0  0  0  0  0  0
   -5.8915   -1.4834   -0.0008 H   0  0  0  0  0  0  0  0  0  0  0  0
  1  9  2  0  0  0  0
  2  9  1  0  0  0  0
  2 10  2  0  0  0  0
  3  5  2  0  0  0  0
  3  6  1  0  0  0  0
  3  9  1  0  0  0  0
  4  7  2  0  0  0  0
  4  8  1  0  0  0  0
  4 10  1  0  0  0  0
  5 11  1  0  0  0  0
  5 17  1  0  0  0  0
  6 12  2  0  0  0  0
  6 18  1  0  0  0  0
  7 13  1  0  0  0  0
  7 19  1  0  0  0  0
  8 14  2  0  0  0  0
  8 20  1  0  0  0  0
 10 21  1  0  0  0  0
 11 15  2  0  0  0  0
 11 22  1  0  0  0  0
 12 15  1  0  0  0  0
 12 23  1  0  0  0  0
 13 16  2  0  0  0  0
 13 24  1  0  0  0  0
 14 16  1  0  0  0  0
 14 25  1  0  0  0  0
 15 26  1  0  0  0  0
 16 27  1  0  0  0  0
M  END
> <PUBCHEM_COMPOUND_CID>
11095862

> <PUBCHEM_CONFORMER_RMSD>
0.6

> <PUBCHEM_CONFORMER_DIVERSEORDER>
1
9
6
11
7
5
8
4
10
2
3

> <PUBCHEM_MMFF94_PARTIAL_CHARGES>
27
1 -0.57
10 0.3
11 -0.15
12 -0.15
13 -0.15
14 -0.15
15 -0.15
16 -0.15
17 0.15
18 0.15
19 0.15
2 -0.66
20 0.15
21 0.06
22 0.15
23 0.15
24 0.15
25 0.15
26 0.15
27 0.15
3 0.09
4 0.09
5 -0.15
6 -0.15
7 -0.15
8 -0.15
9 0.69

> <PUBCHEM_EFFECTIVE_ROTOR_COUNT>
3

> <PUBCHEM_PHARMACOPHORE_FEATURES>
5
1 1 acceptor
1 2 acceptor
1 2 donor
6 3 5 6 11 12 15 rings
6 4 7 8 13 14 16 rings

> <PUBCHEM_HEAVY_ATOM_COUNT>
16

> <PUBCHEM_ATOM_DEF_STEREO_COUNT>
0

> <PUBCHEM_ATOM_UDEF_STEREO_COUNT>
0

> <PUBCHEM_BOND_DEF_STEREO_COUNT>
0

> <PUBCHEM_BOND_UDEF_STEREO_COUNT>
0

> <PUBCHEM_ISOTOPIC_ATOM_COUNT>
0

> <PUBCHEM_COMPONENT_COUNT>
1

> <PUBCHEM_CACTVS_TAUTO_COUNT>
1

> <PUBCHEM_CONFORMER_ID>
00A94F3600000001

> <PUBCHEM_MMFF94_ENERGY>
45.0089

> <PUBCHEM_FEATURE_SELFOVERLAP>
25.417

> <PUBCHEM_SHAPE_FINGERPRINT>
10616163 171 18268995452317191319
11806522 49 18408886248067635448
12107183 9 17692536615373301937
12555020 224 18410845569694588655
12596602 18 16845290578854537938
13167823 11 18411418414535013847
14251731 8 18408603635019433133
14251764 18 18201444688428136155
14252887 29 17703797998602238190
15196674 1 18410856559645402119
15242433 33 18409450279978269047
15352361 1 18410855451548789699
15477762 27 18408605876982052348
15536298 74 18412824702644037898
17834072 33 18410576214392627612
17834072 8 18259977159693953797
17834074 16 18409167731470808875
1813 80 17312824874551920933
18186145 218 17095517439799342721
19141452 34 18410575085306670271
200 152 18201718466153571769
20261772 1 17917988399605583174
20281475 54 18409451375269074892
20374829 77 18261107452619279307
20645477 70 18411700954880034838
21065198 57 18340485659853124025
21250096 35 18343581828392802512
21267235 1 18411709772194646774
221490 88 18191030190655222043
2215653 11 18411973646927816991
22485316 2 18410009931396722500
22646028 1 18202561800209515807
22646028 28 18411981360103751595
23402539 116 16732978708909078372
23557571 272 17458057145267622988
23559900 14 18340197592049009593
239999 70 18273502273776078294
26918003 58 18272367555399264217
2871803 45 18260263027821184994
3004659 81 18259985938380584422
3268164 11 16370717106942126487
33824 294 18409165498583882154
42 15 18412265034288223757
4214541 1 18410573951156060417
4921388 177 16371018450627699451
5104073 3 18412826884524283353
559249 180 18337104562871331347
77779 3 18410293618466317357
9709674 26 18190463942488924139
9981440 41 17326896682316235881

> <PUBCHEM_SHAPE_MULTIPOLES>
318.42
11.69
1.88
0.61
2.26
0.08
0
3.43
-0.01
-0.37
0
0.01
0.02
0

> <PUBCHEM_SHAPE_SELFOVERLAP>
686.918

> <PUBCHEM_SHAPE_VOLUME>
174.3

> <PUBCHEM_COORDINATE_TYPE>
2
5
10

$$$$
