101433337
  -OEChem-04292122153D

 30 31  0     0  0  0  0  0  0999 V2000
    5.3591   -1.4099    1.0839 F   0  0  0  0  0  0  0  0  0  0  0  0
    5.3588   -1.4090   -1.0849 F   0  0  0  0  0  0  0  0  0  0  0  0
    5.9931    0.3653    0.0001 F   0  0  0  0  0  0  0  0  0  0  0  0
   -2.8727    2.3349   -0.0002 O   0  0  0  0  0  0  0  0  0  0  0  0
   -1.3536    0.5749   -0.0001 N   0  0  0  0  0  0  0  0  0  0  0  0
    3.6646   -0.1151    0.0000 C   0  0  0  0  0  0  0  0  0  0  0  0
    1.0492    0.8557    0.0004 C   0  0  0  0  0  0  0  0  0  0  0  0
    3.4312    1.2602    0.0005 C   0  0  0  0  0  0  0  0  0  0  0  0
    2.5904   -1.0049   -0.0002 C   0  0  0  0  0  0  0  0  0  0  0  0
    2.1236    1.7455    0.0007 C   0  0  0  0  0  0  0  0  0  0  0  0
    1.2829   -0.5195    0.0002 C   0  0  0  0  0  0  0  0  0  0  0  0
    5.0631   -0.6335   -0.0001 C   0  0  0  0  0  0  0  0  0  0  0  0
   -3.7396    0.1568    0.0000 C   0  0  0  0  0  0  0  0  0  0  0  0
   -0.3144    1.3612   -0.0002 C   0  0  0  0  0  0  0  0  0  0  0  0
   -3.4756   -1.2128    0.0003 C   0  0  0  0  0  0  0  0  0  0  0  0
   -5.0577    0.6129   -0.0003 C   0  0  0  0  0  0  0  0  0  0  0  0
   -2.6132    1.1347   -0.0003 C   0  0  0  0  0  0  0  0  0  0  0  0
   -4.5296   -2.1264    0.0003 C   0  0  0  0  0  0  0  0  0  0  0  0
   -6.1119   -0.3006   -0.0001 C   0  0  0  0  0  0  0  0  0  0  0  0
   -5.8477   -1.6704    0.0001 C   0  0  0  0  0  0  0  0  0  0  0  0
    4.2538    1.9699    0.0006 H   0  0  0  0  0  0  0  0  0  0  0  0
    2.7628   -2.0780   -0.0004 H   0  0  0  0  0  0  0  0  0  0  0  0
    1.9574    2.8197    0.0008 H   0  0  0  0  0  0  0  0  0  0  0  0
    0.4661   -1.2364    0.0000 H   0  0  0  0  0  0  0  0  0  0  0  0
   -0.4349    2.4597   -0.0006 H   0  0  0  0  0  0  0  0  0  0  0  0
   -2.4635   -1.6074    0.0005 H   0  0  0  0  0  0  0  0  0  0  0  0
   -5.2898    1.6745   -0.0007 H   0  0  0  0  0  0  0  0  0  0  0  0
   -4.3245   -3.1930    0.0006 H   0  0  0  0  0  0  0  0  0  0  0  0
   -7.1384    0.0542   -0.0003 H   0  0  0  0  0  0  0  0  0  0  0  0
   -6.6685   -2.3816    0.0001 H   0  0  0  0  0  0  0  0  0  0  0  0
  1 12  1  0  0  0  0
  2 12  1  0  0  0  0
  3 12  1  0  0  0  0
  4 17  2  0  0  0  0
  5 14  2  0  0  0  0
  5 17  1  0  0  0  0
  6  8  2  0  0  0  0
  6  9  1  0  0  0  0
  6 12  1  0  0  0  0
  7 10  2  0  0  0  0
  7 11  1  0  0  0  0
  7 14  1  0  0  0  0
  8 10  1  0  0  0  0
  8 21  1  0  0  0  0
  9 11  2  0  0  0  0
  9 22  1  0  0  0  0
 10 23  1  0  0  0  0
 11 24  1  0  0  0  0
 13 15  2  0  0  0  0
 13 16  1  0  0  0  0
 13 17  1  0  0  0  0
 14 25  1  0  0  0  0
 15 18  1  0  0  0  0
 15 26  1  0  0  0  0
 16 19  2  0  0  0  0
 16 27  1  0  0  0  0
 18 20  2  0  0  0  0
 18 28  1  0  0  0  0
 19 20  1  0  0  0  0
 19 29  1  0  0  0  0
 20 30  1  0  0  0  0
M  END
> <PUBCHEM_COMPOUND_CID>
101433337

> <PUBCHEM_CONFORMER_RMSD>
0.6

> <PUBCHEM_CONFORMER_DIVERSEORDER>
1
14
13
8
5
4
7
6
10
2
11
3
9
12

> <PUBCHEM_MMFF94_PARTIAL_CHARGES>
30
1 -0.34
10 -0.15
11 -0.15
12 1.16
13 0.09
14 0.3
15 -0.15
16 -0.15
17 0.69
18 -0.15
19 -0.15
2 -0.34
20 -0.15
21 0.15
22 0.15
23 0.15
24 0.15
25 0.06
26 0.15
27 0.15
28 0.15
29 0.15
3 -0.34
30 0.15
4 -0.57
5 -0.66
6 -0.14
7 0.09
8 -0.15
9 -0.15

> <PUBCHEM_EFFECTIVE_ROTOR_COUNT>
4

> <PUBCHEM_PHARMACOPHORE_FEATURES>
5
1 4 acceptor
1 5 acceptor
1 5 donor
6 13 15 16 18 19 20 rings
6 6 7 8 9 10 11 rings

> <PUBCHEM_HEAVY_ATOM_COUNT>
20

> <PUBCHEM_ATOM_DEF_STEREO_COUNT>
0

> <PUBCHEM_ATOM_UDEF_STEREO_COUNT>
0

> <PUBCHEM_BOND_DEF_STEREO_COUNT>
0

> <PUBCHEM_BOND_UDEF_STEREO_COUNT>
0

> <PUBCHEM_ISOTOPIC_ATOM_COUNT>
0

> <PUBCHEM_COMPONENT_COUNT>
1

> <PUBCHEM_CACTVS_TAUTO_COUNT>
1

> <PUBCHEM_CONFORMER_ID>
060BBFF900000001

> <PUBCHEM_MMFF94_ENERGY>
47.0918

> <PUBCHEM_FEATURE_SELFOVERLAP>
25.417

> <PUBCHEM_SHAPE_FINGERPRINT>
10595046 47 18334297582515693860
10968037 39 18335140908181676111
11315181 36 18273217517222937265
11524674 6 16917067772253607303
12107183 9 17688870839406391905
12236239 1 18040998427425735493
12516196 113 18201999945119613080
12555020 224 18337943589597505687
12760667 363 18343864433742353997
13167823 11 18410291432412301253
13288520 33 18411138048313837429
13402501 40 18413673517374118463
13685833 64 18409733989050253651
13862211 1 18334293137477477354
13911882 115 17918002654586311870
1420 363 18343304764300045007
14251732 16 18340485668569698216
14251752 14 17603856768272338949
14341114 176 18412267250401924517
14461889 52 18339918325233570074
14576447 43 18260265235634601490
15196674 1 18410574032865576805
15352361 1 18410856581610576161
15880784 105 18059295473923387971
17834072 33 18334016107327798284
17844677 252 18410298012181535573
17857418 61 18409446990186288139
18222031 100 17749105604023118180
200 152 18272088305579720217
20028762 73 18272086115031134470
20261772 1 17917709144942205263
20374829 77 18408039615666608257
20645477 56 9223230745948804469
21150785 3 16443070529727028734
21267235 1 18411707585992703815
21623969 137 17274826826875740718
21682296 61 17631182896060705582
221490 88 18336551632617688816
23035841 295 18407760335434146667
23198884 109 14995999931063904725
23402539 116 18334290972708367581
23522609 53 18119561831718767837
23559900 14 18338790217381792545
239999 70 18342178877868987022
26918003 58 18202001027931289481
2871803 45 18260261975733266283
2916195 48 9007055751510054095
3004659 81 18187642531248386905
335352 9 18410291411834452373
351380 3 18334009501863282355
4073 2 17969225701420259650
4214541 1 18410856543135569345
4325135 7 18334861645250422772
465052 167 18343868818566476886
5104073 3 18272649043256076952
559249 180 18409445878602083171
57483677 66 18335417967351725307
59682541 35 18272078449257394088
59682541 52 13335278854612873690
59755656 215 18336546032281242631
59755656 520 16588025710848929259
67856867 119 18263364844396605268
7495541 125 17988921210317298104
9709674 26 18189901001262230187
999808 66 17749683986648590027

> <PUBCHEM_SHAPE_MULTIPOLES>
378.92
15.91
2.01
0.67
0.58
0.08
0
-7.1
0
-0.86
0
0.38
-0.13
0

> <PUBCHEM_SHAPE_SELFOVERLAP>
819.105

> <PUBCHEM_SHAPE_VOLUME>
207.7

> <PUBCHEM_COORDINATE_TYPE>
2
5
10

$$$$
