15290
  -OEChem-04292122243D

 19 19  0     0  0  0  0  0  0999 V2000
    2.1331    0.0001    0.9269 S   0  0  0  0  0  0  0  0  0  0  0  0
    1.0858   -0.0032   -0.5756 C   0  0  0  0  0  0  0  0  0  0  0  0
    0.2207   -1.2680   -0.6399 C   0  0  0  0  0  0  0  0  0  0  0  0
    0.2260    1.2650   -0.6417 C   0  0  0  0  0  0  0  0  0  0  0  0
   -0.9423   -1.2623    0.3534 C   0  0  0  0  0  0  0  0  0  0  0  0
   -0.9379    1.2655    0.3507 C   0  0  0  0  0  0  0  0  0  0  0  0
   -1.7854    0.0030    0.2263 C   0  0  0  0  0  0  0  0  0  0  0  0
    1.7782   -0.0054   -1.4249 H   0  0  0  0  0  0  0  0  0  0  0  0
    0.8307   -2.1678   -0.4933 H   0  0  0  0  0  0  0  0  0  0  0  0
   -0.1965   -1.3472   -1.6529 H   0  0  0  0  0  0  0  0  0  0  0  0
   -0.1904    1.3441   -1.6550 H   0  0  0  0  0  0  0  0  0  0  0  0
    0.8392    2.1630   -0.4967 H   0  0  0  0  0  0  0  0  0  0  0  0
   -0.5704   -1.3579    1.3794 H   0  0  0  0  0  0  0  0  0  0  0  0
   -1.5757   -2.1387    0.1723 H   0  0  0  0  0  0  0  0  0  0  0  0
   -1.5682    2.1436    0.1671 H   0  0  0  0  0  0  0  0  0  0  0  0
   -0.5665    1.3624    1.3768 H   0  0  0  0  0  0  0  0  0  0  0  0
   -2.2960    0.0029   -0.7448 H   0  0  0  0  0  0  0  0  0  0  0  0
   -2.5661    0.0051    0.9954 H   0  0  0  0  0  0  0  0  0  0  0  0
    1.1463    0.0006    1.8330 H   0  0  0  0  0  0  0  0  0  0  0  0
  1  2  1  0  0  0  0
  1 19  1  0  0  0  0
  2  3  1  0  0  0  0
  2  4  1  0  0  0  0
  2  8  1  0  0  0  0
  3  5  1  0  0  0  0
  3  9  1  0  0  0  0
  3 10  1  0  0  0  0
  4  6  1  0  0  0  0
  4 11  1  0  0  0  0
  4 12  1  0  0  0  0
  5  7  1  0  0  0  0
  5 13  1  0  0  0  0
  5 14  1  0  0  0  0
  6  7  1  0  0  0  0
  6 15  1  0  0  0  0
  6 16  1  0  0  0  0
  7 17  1  0  0  0  0
  7 18  1  0  0  0  0
M  END
> <PUBCHEM_COMPOUND_CID>
15290

> <PUBCHEM_CONFORMER_RMSD>
0.4

> <PUBCHEM_CONFORMER_DIVERSEORDER>
2
1
3
4

> <PUBCHEM_MMFF94_PARTIAL_CHARGES>
3
1 -0.41
19 0.18
2 0.23

> <PUBCHEM_EFFECTIVE_ROTOR_COUNT>
1.2

> <PUBCHEM_PHARMACOPHORE_FEATURES>
1
6 2 3 4 5 6 7 rings

> <PUBCHEM_HEAVY_ATOM_COUNT>
7

> <PUBCHEM_ATOM_DEF_STEREO_COUNT>
0

> <PUBCHEM_ATOM_UDEF_STEREO_COUNT>
0

> <PUBCHEM_BOND_DEF_STEREO_COUNT>
0

> <PUBCHEM_BOND_UDEF_STEREO_COUNT>
0

> <PUBCHEM_ISOTOPIC_ATOM_COUNT>
0

> <PUBCHEM_COMPONENT_COUNT>
1

> <PUBCHEM_CACTVS_TAUTO_COUNT>
1

> <PUBCHEM_CONFORMER_ID>
00003BBA00000002

> <PUBCHEM_MMFF94_ENERGY>
3.7336

> <PUBCHEM_FEATURE_SELFOVERLAP>
5.074

> <PUBCHEM_SHAPE_FINGERPRINT>
16714656 1 18338530689381411692
18185500 45 17904199578784064618
20653085 51 13470124180777965914
21040471 1 18194416501848468725
24536 1 18338815454113199389
29004967 10 14562532881686454204
5084963 1 18269563740666372390
5943 1 12118107340881900996

> <PUBCHEM_SHAPE_MULTIPOLES>
147.91
2.25
1.52
0.97
0.66
0
0.02
0
0.75
-0.35
-0.13
0.28
0
0

> <PUBCHEM_SHAPE_SELFOVERLAP>
270.573

> <PUBCHEM_SHAPE_VOLUME>
94.3

> <PUBCHEM_COORDINATE_TYPE>
2
5
10

$$$$
