12765
  -OEChem-04292122253D

 17 17  0     0  0  0  0  0  0999 V2000
    3.4933   -0.3555    0.0002 S   0  0  0  0  0  0  0  0  0  0  0  0
   -2.3802    0.4814    0.0001 O   0  0  0  0  0  0  0  0  0  0  0  0
   -1.0328    0.2897   -0.0001 C   0  0  0  0  0  0  0  0  0  0  0  0
   -0.5127   -1.0045   -0.0002 C   0  0  0  0  0  0  0  0  0  0  0  0
   -0.1720    1.3874   -0.0001 C   0  0  0  0  0  0  0  0  0  0  0  0
    1.7292   -0.1035    0.0000 C   0  0  0  0  0  0  0  0  0  0  0  0
    0.8682   -1.2011    0.0000 C   0  0  0  0  0  0  0  0  0  0  0  0
    1.2090    1.1909    0.0000 C   0  0  0  0  0  0  0  0  0  0  0  0
   -3.2021   -0.6848    0.0002 C   0  0  0  0  0  0  0  0  0  0  0  0
   -1.1235   -1.9009   -0.0002 H   0  0  0  0  0  0  0  0  0  0  0  0
   -0.5716    2.3979    0.0000 H   0  0  0  0  0  0  0  0  0  0  0  0
    1.2517   -2.2185    0.0000 H   0  0  0  0  0  0  0  0  0  0  0  0
    1.8639    2.0586    0.0001 H   0  0  0  0  0  0  0  0  0  0  0  0
   -3.0590   -1.2780   -0.9095 H   0  0  0  0  0  0  0  0  0  0  0  0
   -4.2434   -0.3464    0.0003 H   0  0  0  0  0  0  0  0  0  0  0  0
   -3.0588   -1.2781    0.9097 H   0  0  0  0  0  0  0  0  0  0  0  0
    3.4778   -1.6967   -0.0015 H   0  0  0  0  0  0  0  0  0  0  0  0
  1  6  1  0  0  0  0
  1 17  1  0  0  0  0
  2  3  1  0  0  0  0
  2  9  1  0  0  0  0
  3  4  2  0  0  0  0
  3  5  1  0  0  0  0
  4  7  1  0  0  0  0
  4 10  1  0  0  0  0
  5  8  2  0  0  0  0
  5 11  1  0  0  0  0
  6  7  2  0  0  0  0
  6  8  1  0  0  0  0
  7 12  1  0  0  0  0
  8 13  1  0  0  0  0
  9 14  1  0  0  0  0
  9 15  1  0  0  0  0
  9 16  1  0  0  0  0
M  END
> <PUBCHEM_COMPOUND_CID>
12765

> <PUBCHEM_CONFORMER_RMSD>
0.4

> <PUBCHEM_CONFORMER_DIVERSEORDER>
1

> <PUBCHEM_MMFF94_PARTIAL_CHARGES>
14
1 -0.28
10 0.15
11 0.15
12 0.15
13 0.15
17 0.18
2 -0.36
3 0.08
4 -0.15
5 -0.15
6 0.1
7 -0.15
8 -0.15
9 0.28

> <PUBCHEM_EFFECTIVE_ROTOR_COUNT>
1

> <PUBCHEM_PHARMACOPHORE_FEATURES>
2
1 2 acceptor
6 3 4 5 6 7 8 rings

> <PUBCHEM_HEAVY_ATOM_COUNT>
9

> <PUBCHEM_ATOM_DEF_STEREO_COUNT>
0

> <PUBCHEM_ATOM_UDEF_STEREO_COUNT>
0

> <PUBCHEM_BOND_DEF_STEREO_COUNT>
0

> <PUBCHEM_BOND_UDEF_STEREO_COUNT>
0

> <PUBCHEM_ISOTOPIC_ATOM_COUNT>
0

> <PUBCHEM_COMPONENT_COUNT>
1

> <PUBCHEM_CACTVS_TAUTO_COUNT>
2

> <PUBCHEM_CONFORMER_ID>
000031DD00000001

> <PUBCHEM_MMFF94_ENERGY>
29.5028

> <PUBCHEM_FEATURE_SELFOVERLAP>
10.148

> <PUBCHEM_SHAPE_FINGERPRINT>
10219947 1 18343303673441700742
10857977 72 18411408510203065130
11062470 55 12468356855624850591
12032990 46 18411426102589887646
14128692 85 18343018938653293359
14325111 11 18410856576877817440
15310529 11 16588014689393089154
16945 1 18410575071857317798
193761 8 17617940227559526722
20201158 50 18335421261845180219
21040471 1 18194401323328562532
21293036 1 18335425685793019758
23235685 24 18410851058008235968
23402655 69 18123169244398122053
23552423 10 17972606485180896298
2748010 2 18121781891833859358
29004967 10 18409170991250616985
5084963 1 18413107272853246249

> <PUBCHEM_SHAPE_MULTIPOLES>
183.2
4.57
1.37
0.62
0.01
0.18
0
-1
0
0.03
0
0.06
-0.01
0

> <PUBCHEM_SHAPE_SELFOVERLAP>
365.295

> <PUBCHEM_SHAPE_VOLUME>
110.9

> <PUBCHEM_COORDINATE_TYPE>
2
5
10

$$$$
