11984408
  -OEChem-04302101393D

 76 82  0     0  0  0  0  0  0999 V2000
    0.0288    1.8970    0.0686 P   0  0  0  0  0  0  0  0  0  0  0  0
    1.0569    0.9218   -0.7268 O   0  0  0  0  0  0  0  0  0  0  0  0
   -1.0831    0.9259    0.7499 O   0  0  0  0  0  0  0  0  0  0  0  0
   -0.7859    2.6244   -1.1270 O   0  0  0  0  0  0  0  0  0  0  0  0
    0.6770    2.8480    1.0340 O   0  0  0  0  0  0  0  0  0  0  0  0
    0.6996   -1.2335    0.2752 C   0  0  0  0  0  0  0  0  0  0  0  0
   -0.6910   -1.2321   -0.2645 C   0  0  0  0  0  0  0  0  0  0  0  0
    1.5551   -0.1636   -0.0512 C   0  0  0  0  0  0  0  0  0  0  0  0
   -1.5507   -0.1629    0.0566 C   0  0  0  0  0  0  0  0  0  0  0  0
    1.2054   -2.2594    1.1325 C   0  0  0  0  0  0  0  0  0  0  0  0
   -1.1893   -2.2596   -1.1266 C   0  0  0  0  0  0  0  0  0  0  0  0
    2.8923   -0.1372    0.3210 C   0  0  0  0  0  0  0  0  0  0  0  0
   -2.8871   -0.1458   -0.3231 C   0  0  0  0  0  0  0  0  0  0  0  0
    2.5739   -2.2244    1.5181 C   0  0  0  0  0  0  0  0  0  0  0  0
   -2.5557   -2.2300   -1.5196 C   0  0  0  0  0  0  0  0  0  0  0  0
    3.7755    0.9368   -0.0857 C   0  0  0  0  0  0  0  0  0  0  0  0
   -3.7769    0.9248    0.0839 C   0  0  0  0  0  0  0  0  0  0  0  0
    3.4005   -1.1756    1.0899 C   0  0  0  0  0  0  0  0  0  0  0  0
   -3.3880   -1.1853   -1.0952 C   0  0  0  0  0  0  0  0  0  0  0  0
    0.4175   -3.3174    1.6492 C   0  0  0  0  0  0  0  0  0  0  0  0
   -0.3958   -3.3147   -1.6416 C   0  0  0  0  0  0  0  0  0  0  0  0
    4.4794    0.8463   -1.2879 C   0  0  0  0  0  0  0  0  0  0  0  0
   -4.4839    0.8296    1.2844 C   0  0  0  0  0  0  0  0  0  0  0  0
    3.9248    2.0646    0.7235 C   0  0  0  0  0  0  0  0  0  0  0  0
   -3.9296    2.0540   -0.7233 C   0  0  0  0  0  0  0  0  0  0  0  0
    3.1032   -3.2334    2.3398 C   0  0  0  0  0  0  0  0  0  0  0  0
   -3.0777   -3.2402   -2.3446 C   0  0  0  0  0  0  0  0  0  0  0  0
    5.3299    1.8803   -1.6796 C   0  0  0  0  0  0  0  0  0  0  0  0
   -5.3399    1.8591    1.6758 C   0  0  0  0  0  0  0  0  0  0  0  0
    4.7755    3.0984    0.3317 C   0  0  0  0  0  0  0  0  0  0  0  0
   -4.7858    3.0832   -0.3318 C   0  0  0  0  0  0  0  0  0  0  0  0
    0.9581   -4.3093    2.4702 C   0  0  0  0  0  0  0  0  0  0  0  0
   -0.9287   -4.3080   -2.4660 C   0  0  0  0  0  0  0  0  0  0  0  0
    5.4779    3.0062   -0.8699 C   0  0  0  0  0  0  0  0  0  0  0  0
   -5.4908    2.9858    0.8678 C   0  0  0  0  0  0  0  0  0  0  0  0
    2.3024   -4.2709    2.8096 C   0  0  0  0  0  0  0  0  0  0  0  0
   -2.2714   -4.2744   -2.8116 C   0  0  0  0  0  0  0  0  0  0  0  0
    4.3482   -0.3437   -2.1841 C   0  0  0  0  0  0  0  0  0  0  0  0
   -4.3498   -0.3616    2.1787 C   0  0  0  0  0  0  0  0  0  0  0  0
    3.1898    2.2017    2.0187 C   0  0  0  0  0  0  0  0  0  0  0  0
   -3.1919    2.1966   -2.0164 C   0  0  0  0  0  0  0  0  0  0  0  0
    6.3871    4.1117   -1.2888 C   0  0  0  0  0  0  0  0  0  0  0  0
   -6.4059    4.0866    1.2865 C   0  0  0  0  0  0  0  0  0  0  0  0
    4.4497   -1.1631    1.3849 H   0  0  0  0  0  0  0  0  0  0  0  0
   -4.4360   -1.1764   -1.3945 H   0  0  0  0  0  0  0  0  0  0  0  0
   -0.6450   -3.3829    1.4264 H   0  0  0  0  0  0  0  0  0  0  0  0
    0.6662   -3.3770   -1.4150 H   0  0  0  0  0  0  0  0  0  0  0  0
    4.1518   -3.2158    2.6313 H   0  0  0  0  0  0  0  0  0  0  0  0
   -4.1251   -3.2259   -2.6410 H   0  0  0  0  0  0  0  0  0  0  0  0
    5.8818    1.8136   -2.6143 H   0  0  0  0  0  0  0  0  0  0  0  0
   -5.8909    1.7900    2.6109 H   0  0  0  0  0  0  0  0  0  0  0  0
    4.8941    3.9752    0.9642 H   0  0  0  0  0  0  0  0  0  0  0  0
   -4.9031    3.9624   -0.9613 H   0  0  0  0  0  0  0  0  0  0  0  0
    0.3243   -5.1082    2.8441 H   0  0  0  0  0  0  0  0  0  0  0  0
   -0.2901   -5.1040   -2.8377 H   0  0  0  0  0  0  0  0  0  0  0  0
    2.7268   -5.0405    3.4473 H   0  0  0  0  0  0  0  0  0  0  0  0
   -2.6900   -5.0450   -3.4519 H   0  0  0  0  0  0  0  0  0  0  0  0
    4.6726   -1.2551   -1.6714 H   0  0  0  0  0  0  0  0  0  0  0  0
    3.3146   -0.4624   -2.5250 H   0  0  0  0  0  0  0  0  0  0  0  0
    4.9695   -0.2457   -3.0815 H   0  0  0  0  0  0  0  0  0  0  0  0
   -4.9753   -0.2688    3.0738 H   0  0  0  0  0  0  0  0  0  0  0  0
   -4.6670   -1.2737    1.6629 H   0  0  0  0  0  0  0  0  0  0  0  0
   -3.3169   -0.4753    2.5236 H   0  0  0  0  0  0  0  0  0  0  0  0
    2.3439    1.5255    2.1492 H   0  0  0  0  0  0  0  0  0  0  0  0
    2.8376    3.2290    2.1593 H   0  0  0  0  0  0  0  0  0  0  0  0
    3.8869    1.9852    2.8373 H   0  0  0  0  0  0  0  0  0  0  0  0
   -3.9181    2.0635   -2.8293 H   0  0  0  0  0  0  0  0  0  0  0  0
   -2.4145    1.4561   -2.2075 H   0  0  0  0  0  0  0  0  0  0  0  0
   -2.7895    3.2081   -2.1307 H   0  0  0  0  0  0  0  0  0  0  0  0
   -0.3774    3.3961   -1.5741 H   0  0  0  0  0  0  0  0  0  0  0  0
    6.0428    5.0763   -0.9006 H   0  0  0  0  0  0  0  0  0  0  0  0
    7.3998    3.9261   -0.9178 H   0  0  0  0  0  0  0  0  0  0  0  0
    6.4234    4.2011   -2.3799 H   0  0  0  0  0  0  0  0  0  0  0  0
   -5.8636    4.8127    1.9001 H   0  0  0  0  0  0  0  0  0  0  0  0
   -6.8249    4.6054    0.4175 H   0  0  0  0  0  0  0  0  0  0  0  0
   -7.2510    3.6988    1.8654 H   0  0  0  0  0  0  0  0  0  0  0  0
  1  2  1  0  0  0  0
  1  3  1  0  0  0  0
  1  4  1  0  0  0  0
  1  5  2  0  0  0  0
  2  8  1  0  0  0  0
  3  9  1  0  0  0  0
  4 70  1  0  0  0  0
  6  7  1  0  0  0  0
  6  8  2  0  0  0  0
  6 10  1  0  0  0  0
  7  9  2  0  0  0  0
  7 11  1  0  0  0  0
  8 12  1  0  0  0  0
  9 13  1  0  0  0  0
 10 14  1  0  0  0  0
 10 20  2  0  0  0  0
 11 15  1  0  0  0  0
 11 21  2  0  0  0  0
 12 16  1  0  0  0  0
 12 18  2  0  0  0  0
 13 17  1  0  0  0  0
 13 19  2  0  0  0  0
 14 18  1  0  0  0  0
 14 26  2  0  0  0  0
 15 19  1  0  0  0  0
 15 27  2  0  0  0  0
 16 22  2  0  0  0  0
 16 24  1  0  0  0  0
 17 23  2  0  0  0  0
 17 25  1  0  0  0  0
 18 44  1  0  0  0  0
 19 45  1  0  0  0  0
 20 32  1  0  0  0  0
 20 46  1  0  0  0  0
 21 33  1  0  0  0  0
 21 47  1  0  0  0  0
 22 28  1  0  0  0  0
 22 38  1  0  0  0  0
 23 29  1  0  0  0  0
 23 39  1  0  0  0  0
 24 30  2  0  0  0  0
 24 40  1  0  0  0  0
 25 31  2  0  0  0  0
 25 41  1  0  0  0  0
 26 36  1  0  0  0  0
 26 48  1  0  0  0  0
 27 37  1  0  0  0  0
 27 49  1  0  0  0  0
 28 34  2  0  0  0  0
 28 50  1  0  0  0  0
 29 35  2  0  0  0  0
 29 51  1  0  0  0  0
 30 34  1  0  0  0  0
 30 52  1  0  0  0  0
 31 35  1  0  0  0  0
 31 53  1  0  0  0  0
 32 36  2  0  0  0  0
 32 54  1  0  0  0  0
 33 37  2  0  0  0  0
 33 55  1  0  0  0  0
 34 42  1  0  0  0  0
 35 43  1  0  0  0  0
 36 56  1  0  0  0  0
 37 57  1  0  0  0  0
 38 58  1  0  0  0  0
 38 59  1  0  0  0  0
 38 60  1  0  0  0  0
 39 61  1  0  0  0  0
 39 62  1  0  0  0  0
 39 63  1  0  0  0  0
 40 64  1  0  0  0  0
 40 65  1  0  0  0  0
 40 66  1  0  0  0  0
 41 67  1  0  0  0  0
 41 68  1  0  0  0  0
 41 69  1  0  0  0  0
 42 71  1  0  0  0  0
 42 72  1  0  0  0  0
 42 73  1  0  0  0  0
 43 74  1  0  0  0  0
 43 75  1  0  0  0  0
 43 76  1  0  0  0  0
M  END
> <PUBCHEM_COMPOUND_CID>
11984408

> <PUBCHEM_CONFORMER_RMSD>
0.8

> <PUBCHEM_CONFORMER_DIVERSEORDER>
2
1

> <PUBCHEM_MMFF94_PARTIAL_CHARGES>
48
1 1.51
18 -0.15
19 -0.15
2 -0.35
20 -0.15
21 -0.15
22 -0.14
23 -0.14
24 -0.14
25 -0.14
26 -0.15
27 -0.15
28 -0.15
29 -0.15
3 -0.35
30 -0.15
31 -0.15
32 -0.15
33 -0.15
34 -0.14
35 -0.14
36 -0.15
37 -0.15
38 0.14
39 0.14
4 -0.77
40 0.14
41 0.14
42 0.14
43 0.14
44 0.15
45 0.15
46 0.15
47 0.15
48 0.15
49 0.15
5 -0.7
50 0.15
51 0.15
52 0.15
53 0.15
54 0.15
55 0.15
56 0.15
57 0.15
70 0.5
8 0.08
9 0.08

> <PUBCHEM_EFFECTIVE_ROTOR_COUNT>
2.4

> <PUBCHEM_PHARMACOPHORE_FEATURES>
9
1 4 acceptor
1 5 acceptor
6 10 14 20 26 32 36 rings
6 11 15 21 27 33 37 rings
6 16 22 24 28 30 34 rings
6 17 23 25 29 31 35 rings
6 6 8 10 12 14 18 rings
6 7 9 11 13 15 19 rings
7 1 2 3 6 7 8 9 rings

> <PUBCHEM_HEAVY_ATOM_COUNT>
43

> <PUBCHEM_ATOM_DEF_STEREO_COUNT>
0

> <PUBCHEM_ATOM_UDEF_STEREO_COUNT>
0

> <PUBCHEM_BOND_DEF_STEREO_COUNT>
0

> <PUBCHEM_BOND_UDEF_STEREO_COUNT>
0

> <PUBCHEM_ISOTOPIC_ATOM_COUNT>
0

> <PUBCHEM_COMPONENT_COUNT>
1

> <PUBCHEM_CACTVS_TAUTO_COUNT>
1

> <PUBCHEM_CONFORMER_ID>
00B6DE1800000002

> <PUBCHEM_MMFF94_ENERGY>
163.4108

> <PUBCHEM_FEATURE_SELFOVERLAP>
45.768

> <PUBCHEM_SHAPE_FINGERPRINT>
10010297 198 18259981548502105930
10032420 55 17977923989885331996
11007060 377 18197221566375269472
11049842 53 17845647041442558182
11093857 51 17487338144832494599
11285246 1 17764297744946297907
11331351 85 17906717126190888914
11445158 3 17975398127775875389
12422481 6 17689987943647427873
12788726 201 17843376692107895607
13540713 5 18338779174393165794
13583140 156 17534896391005403707
13726171 33 18202012056895804297
13944108 23 17838347276361118617
140371 6 17615405196449487748
14790565 3 18200604587892631601
14856354 85 17459765889247642017
15420108 30 18271515434214785369
15448158 71 18335411340687264104
15968369 153 17619646003769989752
16114785 44 18119542165336715530
19304152 47 17968098663347817349
19311894 1 18131071579551031453
19319366 153 18333168366814763114
20764821 26 18192402291257631912
21033648 29 18202281411686354705
21033650 10 18196093472398891124
21756936 100 18189345722094213906
22121540 332 18116176478397881602
23191077 185 18342737433601600055
23559900 14 17703792484006979910
27425 322 18262252117554658908
3178227 256 18042410128101018282
3380486 145 17106446392454633250
3552219 110 15869724882970620082
469060 322 17750229378195085815
5252454 2 18410849966870830112
563151 40 18337398244081845732
57527293 21 18190187781051046019
57527295 17 18340493387127180214
57527585 103 17034714669831986099
6058803 2 18266716087092449550
6697151 62 17101687679890017531
6703917 75 17825131408877230452

> <PUBCHEM_SHAPE_MULTIPOLES>
865.29
12.45
6.75
2.74
0.11
3.2
-0.01
-18.06
0.01
-0.09
0
-0.01
3.22
-5.72

> <PUBCHEM_SHAPE_SELFOVERLAP>
1955.229

> <PUBCHEM_SHAPE_VOLUME>
457.1

> <PUBCHEM_COORDINATE_TYPE>
2
5
10

$$$$
