11498681
  -OEChem-04302101302D

112118  0     0  0  0  0  0  0999 V2000
    7.4703    0.7004    0.0000 P   0  0  0  0  0  0  0  0  0  0  0  0
    8.0938   -0.0815    0.0000 O   0  0  0  0  0  0  0  0  0  0  0  0
    6.4703    0.7004    0.0000 O   0  0  0  0  0  0  0  0  0  0  0  0
    7.4703    1.7004    0.0000 O   0  0  0  0  0  0  0  0  0  0  0  0
    8.2521    1.3238    0.0000 O   0  0  0  0  0  0  0  0  0  0  0  0
    9.6367   -1.1856    0.0000 C   0  0  0  0  0  0  0  0  0  0  0  0
    4.6451    1.2183    0.0000 C   0  0  0  0  0  0  0  0  0  0  0  0
    8.7408   -1.6298    0.0000 C   0  0  0  0  0  0  0  0  0  0  0  0
    4.8563    0.2409    0.0000 C   0  0  0  0  0  0  0  0  0  0  0  0
    6.9703   -1.4903    0.0000 C   0  0  0  0  0  0  0  0  0  0  0  0
    6.0693   -1.0564    0.0000 C   0  0  0  0  0  0  0  0  0  0  0  0
    9.6999   -0.1876    0.0000 C   0  0  0  0  0  0  0  0  0  0  0  0
    3.6930    1.5241    0.0000 C   0  0  0  0  0  0  0  0  0  0  0  0
   10.4694   -1.7393    0.0000 C   0  0  0  0  0  0  0  0  0  0  0  0
    5.3859    1.8899    0.0000 C   0  0  0  0  0  0  0  0  0  0  0  0
    7.8713   -1.0564    0.0000 C   0  0  0  0  0  0  0  0  0  0  0  0
    5.8468   -0.0815    0.0000 C   0  0  0  0  0  0  0  0  0  0  0  0
    9.7631    0.8104    0.0000 C   0  0  0  0  0  0  0  0  0  0  0  0
    2.9521    0.8524    0.0000 C   0  0  0  0  0  0  0  0  0  0  0  0
   10.4062   -2.7373    0.0000 C   0  0  0  0  0  0  0  0  0  0  0  0
    6.1268    2.5616    0.0000 C   0  0  0  0  0  0  0  0  0  0  0  0
   11.4285   -0.2970    0.0000 C   0  0  0  0  0  0  0  0  0  0  0  0
    4.2226    3.1732    0.0000 C   0  0  0  0  0  0  0  0  0  0  0  0
    6.8764   -2.5277    0.0000 C   0  0  0  0  0  0  0  0  0  0  0  0
    5.3168   -1.7766    0.0000 C   0  0  0  0  0  0  0  0  0  0  0  0
   10.5958    0.2567    0.0000 C   0  0  0  0  0  0  0  0  0  0  0  0
    3.4817    2.5015    0.0000 C   0  0  0  0  0  0  0  0  0  0  0  0
   11.3653   -1.2950    0.0000 C   0  0  0  0  0  0  0  0  0  0  0  0
    5.1747    2.8674    0.0000 C   0  0  0  0  0  0  0  0  0  0  0  0
    8.6710   -2.6691    0.0000 C   0  0  0  0  0  0  0  0  0  0  0  0
    4.0873   -0.4617    0.0000 C   0  0  0  0  0  0  0  0  0  0  0  0
    7.7325   -3.1211    0.0000 C   0  0  0  0  0  0  0  0  0  0  0  0
    4.3191   -1.4772    0.0000 C   0  0  0  0  0  0  0  0  0  0  0  0
   12.3244    0.1472    0.0000 C   0  0  0  0  0  0  0  0  0  0  0  0
    4.0114    4.1506    0.0000 C   0  0  0  0  0  0  0  0  0  0  0  0
   10.6590    1.2547    0.0000 C   0  0  0  0  0  0  0  0  0  0  0  0
    8.9304    1.3642    0.0000 C   0  0  0  0  0  0  0  0  0  0  0  0
    2.0000    1.1582    0.0000 C   0  0  0  0  0  0  0  0  0  0  0  0
    3.1633   -0.1250    0.0000 C   0  0  0  0  0  0  0  0  0  0  0  0
   11.2389   -3.2910    0.0000 C   0  0  0  0  0  0  0  0  0  0  0  0
    9.5104   -3.1816    0.0000 C   0  0  0  0  0  0  0  0  0  0  0  0
    5.9156    3.5390    0.0000 C   0  0  0  0  0  0  0  0  0  0  0  0
    7.0789    2.2558    0.0000 C   0  0  0  0  0  0  0  0  0  0  0  0
    6.2447   -3.4098    0.0000 C   0  0  0  0  0  0  0  0  0  0  0  0
    5.5826   -2.8285    0.0000 C   0  0  0  0  0  0  0  0  0  0  0  0
    8.2108   -4.0950    0.0000 C   0  0  0  0  0  0  0  0  0  0  0  0
    3.5180   -2.2091    0.0000 C   0  0  0  0  0  0  0  0  0  0  0  0
   13.1571   -0.4065    0.0000 C   0  0  0  0  0  0  0  0  0  0  0  0
   12.3876    1.1453    0.0000 C   0  0  0  0  0  0  0  0  0  0  0  0
    3.0593    4.4564    0.0000 C   0  0  0  0  0  0  0  0  0  0  0  0
    4.7522    4.8223    0.0000 C   0  0  0  0  0  0  0  0  0  0  0  0
    6.6396   -4.5636    0.0000 C   0  0  0  0  0  0  0  0  0  0  0  0
    4.7987   -3.5787    0.0000 C   0  0  0  0  0  0  0  0  0  0  0  0
    7.6603   -4.8223    0.0000 C   0  0  0  0  0  0  0  0  0  0  0  0
    3.7595   -3.2669    0.0000 C   0  0  0  0  0  0  0  0  0  0  0  0
    9.8023    1.4292    0.0000 H   0  0  0  0  0  0  0  0  0  0  0  0
    3.5424    0.6628    0.0000 H   0  0  0  0  0  0  0  0  0  0  0  0
   10.9617   -2.4618    0.0000 H   0  0  0  0  0  0  0  0  0  0  0  0
    6.5861    2.9780    0.0000 H   0  0  0  0  0  0  0  0  0  0  0  0
   10.6350    0.8755    0.0000 H   0  0  0  0  0  0  0  0  0  0  0  0
    2.8914    2.6911    0.0000 H   0  0  0  0  0  0  0  0  0  0  0  0
   11.8816   -1.6383    0.0000 H   0  0  0  0  0  0  0  0  0  0  0  0
    5.6340    3.2838    0.0000 H   0  0  0  0  0  0  0  0  0  0  0  0
    9.1846   -3.0164    0.0000 H   0  0  0  0  0  0  0  0  0  0  0  0
    3.4956   -0.2767    0.0000 H   0  0  0  0  0  0  0  0  0  0  0  0
   11.8081    0.4906    0.0000 H   0  0  0  0  0  0  0  0  0  0  0  0
    4.6017    3.9610    0.0000 H   0  0  0  0  0  0  0  0  0  0  0  0
   10.9345    0.6993    0.0000 H   0  0  0  0  0  0  0  0  0  0  0  0
   11.2145    1.5302    0.0000 H   0  0  0  0  0  0  0  0  0  0  0  0
   10.3836    1.8102    0.0000 H   0  0  0  0  0  0  0  0  0  0  0  0
    9.2737    1.8804    0.0000 H   0  0  0  0  0  0  0  0  0  0  0  0
    8.4142    1.7075    0.0000 H   0  0  0  0  0  0  0  0  0  0  0  0
    8.5871    0.8479    0.0000 H   0  0  0  0  0  0  0  0  0  0  0  0
    2.1896    1.7485    0.0000 H   0  0  0  0  0  0  0  0  0  0  0  0
    1.4097    1.3478    0.0000 H   0  0  0  0  0  0  0  0  0  0  0  0
    1.8104    0.5679    0.0000 H   0  0  0  0  0  0  0  0  0  0  0  0
    2.5573   -0.2560    0.0000 H   0  0  0  0  0  0  0  0  0  0  0  0
    3.2943   -0.7310    0.0000 H   0  0  0  0  0  0  0  0  0  0  0  0
    3.7693    0.0060    0.0000 H   0  0  0  0  0  0  0  0  0  0  0  0
   10.8956   -3.8073    0.0000 H   0  0  0  0  0  0  0  0  0  0  0  0
   11.7552   -3.6343    0.0000 H   0  0  0  0  0  0  0  0  0  0  0  0
   11.5822   -2.7748    0.0000 H   0  0  0  0  0  0  0  0  0  0  0  0
    9.2349   -2.6261    0.0000 H   0  0  0  0  0  0  0  0  0  0  0  0
    8.9549   -3.4570    0.0000 H   0  0  0  0  0  0  0  0  0  0  0  0
    9.7858   -3.7370    0.0000 H   0  0  0  0  0  0  0  0  0  0  0  0
    6.5216    3.6700    0.0000 H   0  0  0  0  0  0  0  0  0  0  0  0
    5.7846    4.1450    0.0000 H   0  0  0  0  0  0  0  0  0  0  0  0
    5.3096    3.4081    0.0000 H   0  0  0  0  0  0  0  0  0  0  0  0
    6.8893    1.6655    0.0000 H   0  0  0  0  0  0  0  0  0  0  0  0
    7.6692    2.0662    0.0000 H   0  0  0  0  0  0  0  0  0  0  0  0
    7.2685    2.8461    0.0000 H   0  0  0  0  0  0  0  0  0  0  0  0
    5.6313   -3.3197    0.0000 H   0  0  0  0  0  0  0  0  0  0  0  0
    6.1785   -2.9998    0.0000 H   0  0  0  0  0  0  0  0  0  0  0  0
    8.8280   -4.1542    0.0000 H   0  0  0  0  0  0  0  0  0  0  0  0
    2.9263   -2.0240    0.0000 H   0  0  0  0  0  0  0  0  0  0  0  0
   12.8138   -0.9228    0.0000 H   0  0  0  0  0  0  0  0  0  0  0  0
   13.6734   -0.7498    0.0000 H   0  0  0  0  0  0  0  0  0  0  0  0
   13.5004    0.1098    0.0000 H   0  0  0  0  0  0  0  0  0  0  0  0
   13.0064    1.1061    0.0000 H   0  0  0  0  0  0  0  0  0  0  0  0
   12.4268    1.7640    0.0000 H   0  0  0  0  0  0  0  0  0  0  0  0
   11.7688    1.1844    0.0000 H   0  0  0  0  0  0  0  0  0  0  0  0
    3.2489    5.0467    0.0000 H   0  0  0  0  0  0  0  0  0  0  0  0
    2.4690    4.6460    0.0000 H   0  0  0  0  0  0  0  0  0  0  0  0
    2.8697    3.8661    0.0000 H   0  0  0  0  0  0  0  0  0  0  0  0
    5.1687    4.3629    0.0000 H   0  0  0  0  0  0  0  0  0  0  0  0
    5.2116    5.2387    0.0000 H   0  0  0  0  0  0  0  0  0  0  0  0
    4.3358    5.2816    0.0000 H   0  0  0  0  0  0  0  0  0  0  0  0
    6.2195   -5.0196    0.0000 H   0  0  0  0  0  0  0  0  0  0  0  0
    4.9437   -4.1815    0.0000 H   0  0  0  0  0  0  0  0  0  0  0  0
    7.8655   -5.4073    0.0000 H   0  0  0  0  0  0  0  0  0  0  0  0
    3.3066   -3.6903    0.0000 H   0  0  0  0  0  0  0  0  0  0  0  0
    8.0072    2.0104    0.0000 H   0  0  0  0  0  0  0  0  0  0  0  0
  1  2  1  0  0  0  0
  1  3  1  0  0  0  0
  1  4  1  0  0  0  0
  1  5  2  0  0  0  0
  2 16  1  0  0  0  0
  3 17  1  0  0  0  0
  4112  1  0  0  0  0
  6  8  1  0  0  0  0
  6 12  2  0  0  0  0
  6 14  1  0  0  0  0
  7  9  1  0  0  0  0
  7 13  2  0  0  0  0
  7 15  1  0  0  0  0
  8 16  1  0  0  0  0
  8 30  2  0  0  0  0
  9 17  1  0  0  0  0
  9 31  2  0  0  0  0
 10 11  1  0  0  0  0
 10 16  2  0  0  0  0
 10 24  1  0  0  0  0
 11 17  2  0  0  0  0
 11 25  1  0  0  0  0
 12 18  1  0  0  0  0
 12 26  1  0  0  0  0
 13 19  1  0  0  0  0
 13 27  1  0  0  0  0
 14 20  1  0  0  0  0
 14 28  2  0  0  0  0
 15 21  1  0  0  0  0
 15 29  2  0  0  0  0
 18 36  1  0  0  0  0
 18 37  1  0  0  0  0
 18 56  1  0  0  0  0
 19 38  1  0  0  0  0
 19 39  1  0  0  0  0
 19 57  1  0  0  0  0
 20 40  1  0  0  0  0
 20 41  1  0  0  0  0
 20 58  1  0  0  0  0
 21 42  1  0  0  0  0
 21 43  1  0  0  0  0
 21 59  1  0  0  0  0
 22 26  2  0  0  0  0
 22 28  1  0  0  0  0
 22 34  1  0  0  0  0
 23 27  2  0  0  0  0
 23 29  1  0  0  0  0
 23 35  1  0  0  0  0
 24 32  1  0  0  0  0
 24 44  2  0  0  0  0
 25 33  1  0  0  0  0
 25 45  2  0  0  0  0
 26 60  1  0  0  0  0
 27 61  1  0  0  0  0
 28 62  1  0  0  0  0
 29 63  1  0  0  0  0
 30 32  1  0  0  0  0
 30 64  1  0  0  0  0
 31 33  1  0  0  0  0
 31 65  1  0  0  0  0
 32 46  2  0  0  0  0
 33 47  2  0  0  0  0
 34 48  1  0  0  0  0
 34 49  1  0  0  0  0
 34 66  1  0  0  0  0
 35 50  1  0  0  0  0
 35 51  1  0  0  0  0
 35 67  1  0  0  0  0
 36 68  1  0  0  0  0
 36 69  1  0  0  0  0
 36 70  1  0  0  0  0
 37 71  1  0  0  0  0
 37 72  1  0  0  0  0
 37 73  1  0  0  0  0
 38 74  1  0  0  0  0
 38 75  1  0  0  0  0
 38 76  1  0  0  0  0
 39 77  1  0  0  0  0
 39 78  1  0  0  0  0
 39 79  1  0  0  0  0
 40 80  1  0  0  0  0
 40 81  1  0  0  0  0
 40 82  1  0  0  0  0
 41 83  1  0  0  0  0
 41 84  1  0  0  0  0
 41 85  1  0  0  0  0
 42 86  1  0  0  0  0
 42 87  1  0  0  0  0
 42 88  1  0  0  0  0
 43 89  1  0  0  0  0
 43 90  1  0  0  0  0
 43 91  1  0  0  0  0
 44 52  1  0  0  0  0
 44 92  1  0  0  0  0
 45 53  1  0  0  0  0
 45 93  1  0  0  0  0
 46 54  1  0  0  0  0
 46 94  1  0  0  0  0
 47 55  1  0  0  0  0
 47 95  1  0  0  0  0
 48 96  1  0  0  0  0
 48 97  1  0  0  0  0
 48 98  1  0  0  0  0
 49 99  1  0  0  0  0
 49100  1  0  0  0  0
 49101  1  0  0  0  0
 50102  1  0  0  0  0
 50103  1  0  0  0  0
 50104  1  0  0  0  0
 51105  1  0  0  0  0
 51106  1  0  0  0  0
 51107  1  0  0  0  0
 52 54  2  0  0  0  0
 52108  1  0  0  0  0
 53 55  2  0  0  0  0
 53109  1  0  0  0  0
 54110  1  0  0  0  0
 55111  1  0  0  0  0
M  END
> <PUBCHEM_COMPOUND_CID>
11498681

> <PUBCHEM_COMPOUND_CANONICALIZED>
1

> <PUBCHEM_CACTVS_COMPLEXITY>
1180

> <PUBCHEM_CACTVS_HBOND_ACCEPTOR>
4

> <PUBCHEM_CACTVS_HBOND_DONOR>
1

> <PUBCHEM_CACTVS_ROTATABLE_BOND>
8

> <PUBCHEM_CACTVS_SUBSKEYS>
AAADcfB8OAIAAAAAAAAAAAAAAAAAAAAAAAAwYMGDBIAAAADBVAAAGgAACCAADQSAmAAyBsAAARCAQiBCAIACAAAgIAAIiAAECIgIJiKAERKAMAAkwBEIiAfAwPAO4AADAAAYAADAAAYAADAAAAAAAAAAAA==

> <PUBCHEM_IUPAC_OPENEYE_NAME>
13-hydroxy-10,16-bis(2,4,6-triisopropylphenyl)-12,14-dioxa-13lambda5-phosphapentacyclo[13.8.0.02,11.03,8.018,23]tricosa-1(15),2(11),3,5,7,9,16,18,20,22-decaene 13-oxide

> <PUBCHEM_IUPAC_CAS_NAME>
13-hydroxy-10,16-bis[2,4,6-tri(propan-2-yl)phenyl]-12,14-dioxa-13lambda5-phosphapentacyclo[13.8.0.02,11.03,8.018,23]tricosa-1(15),2(11),3,5,7,9,16,18,20,22-decaene 13-oxide

> <PUBCHEM_IUPAC_NAME_MARKUP>
13-hydroxy-10,16-bis[2,4,6-tri(propan-2-yl)phenyl]-12,14-dioxa-13&lambda;<SUP>5</SUP>-phosphapentacyclo[13.8.0.0<SUP>2,11</SUP>.0<SUP>3,8</SUP>.0<SUP>18,23</SUP>]tricosa-1(15),2(11),3,5,7,9,16,18,20,22-decaene 13-oxide

> <PUBCHEM_IUPAC_NAME>
13-hydroxy-10,16-bis[2,4,6-tri(propan-2-yl)phenyl]-12,14-dioxa-13lambda5-phosphapentacyclo[13.8.0.02,11.03,8.018,23]tricosa-1(15),2(11),3,5,7,9,16,18,20,22-decaene 13-oxide

> <PUBCHEM_IUPAC_SYSTEMATIC_NAME>
13-oxidanyl-10,16-bis[2,4,6-tri(propan-2-yl)phenyl]-12,14-dioxa-13lambda5-phosphapentacyclo[13.8.0.02,11.03,8.018,23]tricosa-1(15),2(11),3,5,7,9,16,18,20,22-decaene 13-oxide

> <PUBCHEM_IUPAC_TRADITIONAL_NAME>
13-hydroxy-10,16-bis(2,4,6-triisopropylphenyl)-12,14-dioxa-13lambda5-phosphapentacyclo[13.8.0.02,11.03,8.018,23]tricosa-1(15),2(11),3,5,7,9,16,18,20,22-decaene 13-oxide

> <PUBCHEM_IUPAC_INCHI>
InChI=1S/C50H57O4P/c1-27(2)35-23-39(29(5)6)45(40(24-35)30(7)8)43-21-33-17-13-15-19-37(33)47-48-38-20-16-14-18-34(38)22-44(50(48)54-55(51,52)53-49(43)47)46-41(31(9)10)25-36(28(3)4)26-42(46)32(11)12/h13-32H,1-12H3,(H,51,52)

> <PUBCHEM_IUPAC_INCHIKEY>
AGQAQYPGJDBIQR-UHFFFAOYSA-N

> <PUBCHEM_XLOGP3_AA>
14.8

> <PUBCHEM_EXACT_MASS>
752.399447

> <PUBCHEM_MOLECULAR_FORMULA>
C50H57O4P

> <PUBCHEM_MOLECULAR_WEIGHT>
753

> <PUBCHEM_OPENEYE_CAN_SMILES>
CC(C)C1=CC(=C(C(=C1)C(C)C)C2=CC3=CC=CC=C3C4=C2OP(=O)(OC5=C4C6=CC=CC=C6C=C5C7=C(C=C(C=C7C(C)C)C(C)C)C(C)C)O)C(C)C

> <PUBCHEM_OPENEYE_ISO_SMILES>
CC(C)C1=CC(=C(C(=C1)C(C)C)C2=CC3=CC=CC=C3C4=C2OP(=O)(OC5=C4C6=CC=CC=C6C=C5C7=C(C=C(C=C7C(C)C)C(C)C)C(C)C)O)C(C)C

> <PUBCHEM_CACTVS_TPSA>
55.8

> <PUBCHEM_MONOISOTOPIC_WEIGHT>
752.399447

> <PUBCHEM_TOTAL_CHARGE>
0

> <PUBCHEM_HEAVY_ATOM_COUNT>
55

> <PUBCHEM_ATOM_DEF_STEREO_COUNT>
0

> <PUBCHEM_ATOM_UDEF_STEREO_COUNT>
0

> <PUBCHEM_BOND_DEF_STEREO_COUNT>
0

> <PUBCHEM_BOND_UDEF_STEREO_COUNT>
0

> <PUBCHEM_ISOTOPIC_ATOM_COUNT>
0

> <PUBCHEM_COMPONENT_COUNT>
1

> <PUBCHEM_CACTVS_TAUTO_COUNT>
-1

> <PUBCHEM_COORDINATE_TYPE>
1
5
255

> <PUBCHEM_BONDANNOTATIONS>
10  16  8
10  24  8
11  17  8
11  25  8
12  26  8
13  27  8
14  28  8
15  29  8
22  26  8
22  28  8
23  27  8
23  29  8
24  32  8
24  44  8
25  33  8
25  45  8
30  32  8
31  33  8
32  46  8
33  47  8
44  52  8
45  53  8
46  54  8
47  55  8
52  54  8
53  55  8
6  12  8
6  14  8
7  13  8
7  15  8
8  16  8
8  30  8
9  17  8
9  31  8

$$$$
