71527863
  -OEChem-04302101292D

154166  0     0  0  0  0  0  0999 V2000
    8.2112    0.1839    0.0000 P   0  0  0  0  0  0  0  0  0  0  0  0
    8.8346   -0.5980    0.0000 O   0  0  0  0  0  0  0  0  0  0  0  0
    7.2112    0.1839    0.0000 O   0  0  0  0  0  0  0  0  0  0  0  0
    8.9930    0.8074    0.0000 O   0  0  0  0  0  0  0  0  0  0  0  0
    8.2112    1.1839    0.0000 O   0  0  0  0  0  0  0  0  0  0  0  0
   10.7652   -0.1252    0.0000 C   0  0  0  0  0  0  0  0  0  0  0  0
    3.6930    0.3359    0.0000 C   0  0  0  0  0  0  0  0  0  0  0  0
   10.6679   -3.7566    0.0000 C   0  0  0  0  0  0  0  0  0  0  0  0
    6.8677    2.0451    0.0000 C   0  0  0  0  0  0  0  0  0  0  0  0
   13.4570   -1.7020    0.0000 C   0  0  0  0  0  0  0  0  0  0  0  0
    4.7522    3.6341    0.0000 C   0  0  0  0  0  0  0  0  0  0  0  0
   10.8762   -1.1191    0.0000 C   0  0  0  0  0  0  0  0  0  0  0  0
    4.4338    1.0076    0.0000 C   0  0  0  0  0  0  0  0  0  0  0  0
   11.0686   -2.8404    0.0000 C   0  0  0  0  0  0  0  0  0  0  0  0
    6.1268    1.3735    0.0000 C   0  0  0  0  0  0  0  0  0  0  0  0
   10.4755   -2.0352    0.0000 C   0  0  0  0  0  0  0  0  0  0  0  0
    5.3859    0.7018    0.0000 C   0  0  0  0  0  0  0  0  0  0  0  0
   12.4631   -1.8131    0.0000 C   0  0  0  0  0  0  0  0  0  0  0  0
    4.9635    2.6567    0.0000 C   0  0  0  0  0  0  0  0  0  0  0  0
   11.5703    0.4679    0.0000 C   0  0  0  0  0  0  0  0  0  0  0  0
    9.8490    0.2755    0.0000 C   0  0  0  0  0  0  0  0  0  0  0  0
    2.7409    0.6417    0.0000 C   0  0  0  0  0  0  0  0  0  0  0  0
    3.9042   -0.6415    0.0000 C   0  0  0  0  0  0  0  0  0  0  0  0
    9.6741   -3.8677    0.0000 C   0  0  0  0  0  0  0  0  0  0  0  0
   11.2610   -4.5617    0.0000 C   0  0  0  0  0  0  0  0  0  0  0  0
    6.6564    3.0226    0.0000 C   0  0  0  0  0  0  0  0  0  0  0  0
    7.8198    1.7393    0.0000 C   0  0  0  0  0  0  0  0  0  0  0  0
   14.0501   -2.5072    0.0000 C   0  0  0  0  0  0  0  0  0  0  0  0
   13.8577   -0.7859    0.0000 C   0  0  0  0  0  0  0  0  0  0  0  0
    5.4931    4.3058    0.0000 C   0  0  0  0  0  0  0  0  0  0  0  0
    3.8001    3.9399    0.0000 C   0  0  0  0  0  0  0  0  0  0  0  0
   11.8701   -1.0080    0.0000 C   0  0  0  0  0  0  0  0  0  0  0  0
    4.2226    1.9850    0.0000 C   0  0  0  0  0  0  0  0  0  0  0  0
   12.0624   -2.7293    0.0000 C   0  0  0  0  0  0  0  0  0  0  0  0
    5.9156    2.3509    0.0000 C   0  0  0  0  0  0  0  0  0  0  0  0
   11.4592    1.4617    0.0000 C   0  0  0  0  0  0  0  0  0  0  0  0
    9.7379    1.2693    0.0000 C   0  0  0  0  0  0  0  0  0  0  0  0
    2.0000   -0.0299    0.0000 C   0  0  0  0  0  0  0  0  0  0  0  0
    3.1633   -1.3131    0.0000 C   0  0  0  0  0  0  0  0  0  0  0  0
    9.2734   -4.7839    0.0000 C   0  0  0  0  0  0  0  0  0  0  0  0
   10.8603   -5.4779    0.0000 C   0  0  0  0  0  0  0  0  0  0  0  0
    7.3973    3.6942    0.0000 C   0  0  0  0  0  0  0  0  0  0  0  0
    8.5606    2.4110    0.0000 C   0  0  0  0  0  0  0  0  0  0  0  0
   10.5430    1.8624    0.0000 C   0  0  0  0  0  0  0  0  0  0  0  0
    2.2112   -1.0074    0.0000 C   0  0  0  0  0  0  0  0  0  0  0  0
    9.8665   -5.5890    0.0000 C   0  0  0  0  0  0  0  0  0  0  0  0
    8.3494    3.3884    0.0000 C   0  0  0  0  0  0  0  0  0  0  0  0
   15.0439   -2.3961    0.0000 C   0  0  0  0  0  0  0  0  0  0  0  0
   14.8515   -0.6748    0.0000 C   0  0  0  0  0  0  0  0  0  0  0  0
    5.2819    5.2832    0.0000 C   0  0  0  0  0  0  0  0  0  0  0  0
    3.5889    4.9173    0.0000 C   0  0  0  0  0  0  0  0  0  0  0  0
   15.4446   -1.4799    0.0000 C   0  0  0  0  0  0  0  0  0  0  0  0
    4.3298    5.5890    0.0000 C   0  0  0  0  0  0  0  0  0  0  0  0
    9.4817   -2.1463    0.0000 C   0  0  0  0  0  0  0  0  0  0  0  0
    5.5972   -0.2756    0.0000 C   0  0  0  0  0  0  0  0  0  0  0  0
    8.6121   -1.5729    0.0000 C   0  0  0  0  0  0  0  0  0  0  0  0
    6.5877   -0.5980    0.0000 C   0  0  0  0  0  0  0  0  0  0  0  0
    7.7112   -2.0068    0.0000 C   0  0  0  0  0  0  0  0  0  0  0  0
    6.8102   -1.5729    0.0000 C   0  0  0  0  0  0  0  0  0  0  0  0
    9.4119   -3.1856    0.0000 C   0  0  0  0  0  0  0  0  0  0  0  0
    4.8282   -0.9782    0.0000 C   0  0  0  0  0  0  0  0  0  0  0  0
    7.6173   -3.0442    0.0000 C   0  0  0  0  0  0  0  0  0  0  0  0
    6.0576   -2.2931    0.0000 C   0  0  0  0  0  0  0  0  0  0  0  0
    8.4734   -3.6376    0.0000 C   0  0  0  0  0  0  0  0  0  0  0  0
    5.0600   -1.9937    0.0000 C   0  0  0  0  0  0  0  0  0  0  0  0
    6.6291   -3.4922    0.0000 C   0  0  0  0  0  0  0  0  0  0  0  0
    5.7619   -3.3370    0.0000 C   0  0  0  0  0  0  0  0  0  0  0  0
    8.4007   -4.7201    0.0000 C   0  0  0  0  0  0  0  0  0  0  0  0
    4.0003   -2.2270    0.0000 C   0  0  0  0  0  0  0  0  0  0  0  0
    6.5314   -4.5728    0.0000 C   0  0  0  0  0  0  0  0  0  0  0  0
    4.6135   -3.7476    0.0000 C   0  0  0  0  0  0  0  0  0  0  0  0
    7.4231   -5.1909    0.0000 C   0  0  0  0  0  0  0  0  0  0  0  0
    3.7750   -3.1109    0.0000 C   0  0  0  0  0  0  0  0  0  0  0  0
   11.3332   -0.3737    0.0000 H   0  0  0  0  0  0  0  0  0  0  0  0
    3.5620    0.9420    0.0000 H   0  0  0  0  0  0  0  0  0  0  0  0
   11.2841   -3.6877    0.0000 H   0  0  0  0  0  0  0  0  0  0  0  0
    6.9986    1.4391    0.0000 H   0  0  0  0  0  0  0  0  0  0  0  0
   13.2085   -2.2701    0.0000 H   0  0  0  0  0  0  0  0  0  0  0  0
    4.2929    3.2177    0.0000 H   0  0  0  0  0  0  0  0  0  0  0  0
   11.8458   -0.0876    0.0000 H   0  0  0  0  0  0  0  0  0  0  0  0
   12.1652    0.6427    0.0000 H   0  0  0  0  0  0  0  0  0  0  0  0
    9.2302    0.3147    0.0000 H   0  0  0  0  0  0  0  0  0  0  0  0
    9.7029   -0.3271    0.0000 H   0  0  0  0  0  0  0  0  0  0  0  0
    3.0301    1.1901    0.0000 H   0  0  0  0  0  0  0  0  0  0  0  0
    2.2510    1.0218    0.0000 H   0  0  0  0  0  0  0  0  0  0  0  0
    4.2345   -1.1662    0.0000 H   0  0  0  0  0  0  0  0  0  0  0  0
    4.4783   -0.4073    0.0000 H   0  0  0  0  0  0  0  0  0  0  0  0
    9.7133   -3.2489    0.0000 H   0  0  0  0  0  0  0  0  0  0  0  0
    9.0715   -3.7216    0.0000 H   0  0  0  0  0  0  0  0  0  0  0  0
   11.7773   -4.9050    0.0000 H   0  0  0  0  0  0  0  0  0  0  0  0
   11.6887   -4.1129    0.0000 H   0  0  0  0  0  0  0  0  0  0  0  0
    6.3261    3.5472    0.0000 H   0  0  0  0  0  0  0  0  0  0  0  0
    6.0824    2.7883    0.0000 H   0  0  0  0  0  0  0  0  0  0  0  0
    7.5306    1.1909    0.0000 H   0  0  0  0  0  0  0  0  0  0  0  0
    8.3096    1.3593    0.0000 H   0  0  0  0  0  0  0  0  0  0  0  0
   13.4946   -2.7826    0.0000 H   0  0  0  0  0  0  0  0  0  0  0  0
   14.2249   -3.1020    0.0000 H   0  0  0  0  0  0  0  0  0  0  0  0
   13.8969   -0.1671    0.0000 H   0  0  0  0  0  0  0  0  0  0  0  0
   13.2551   -0.6398    0.0000 H   0  0  0  0  0  0  0  0  0  0  0  0
    5.8234    3.7811    0.0000 H   0  0  0  0  0  0  0  0  0  0  0  0
    6.0672    4.5400    0.0000 H   0  0  0  0  0  0  0  0  0  0  0  0
    3.1806    3.9162    0.0000 H   0  0  0  0  0  0  0  0  0  0  0  0
    3.7159    3.3256    0.0000 H   0  0  0  0  0  0  0  0  0  0  0  0
   12.1185   -0.4399    0.0000 H   0  0  0  0  0  0  0  0  0  0  0  0
    3.6323    2.1746    0.0000 H   0  0  0  0  0  0  0  0  0  0  0  0
   12.4301   -3.2285    0.0000 H   0  0  0  0  0  0  0  0  0  0  0  0
    6.3749    2.7673    0.0000 H   0  0  0  0  0  0  0  0  0  0  0  0
   12.0780    1.4225    0.0000 H   0  0  0  0  0  0  0  0  0  0  0  0
   11.6053    2.0642    0.0000 H   0  0  0  0  0  0  0  0  0  0  0  0
    9.4625    1.8247    0.0000 H   0  0  0  0  0  0  0  0  0  0  0  0
    9.1431    1.0945    0.0000 H   0  0  0  0  0  0  0  0  0  0  0  0
    1.6697    0.4948    0.0000 H   0  0  0  0  0  0  0  0  0  0  0  0
    1.4259   -0.2641    0.0000 H   0  0  0  0  0  0  0  0  0  0  0  0
    2.8741   -1.8616    0.0000 H   0  0  0  0  0  0  0  0  0  0  0  0
    3.6532   -1.6932    0.0000 H   0  0  0  0  0  0  0  0  0  0  0  0
    8.7571   -4.4405    0.0000 H   0  0  0  0  0  0  0  0  0  0  0  0
    8.8456   -5.2327    0.0000 H   0  0  0  0  0  0  0  0  0  0  0  0
   10.8211   -6.0967    0.0000 H   0  0  0  0  0  0  0  0  0  0  0  0
   11.4628   -5.6240    0.0000 H   0  0  0  0  0  0  0  0  0  0  0  0
    7.6865    4.2426    0.0000 H   0  0  0  0  0  0  0  0  0  0  0  0
    6.9074    4.0742    0.0000 H   0  0  0  0  0  0  0  0  0  0  0  0
    8.8910    1.8863    0.0000 H   0  0  0  0  0  0  0  0  0  0  0  0
    9.1347    2.6452    0.0000 H   0  0  0  0  0  0  0  0  0  0  0  0
   10.8864    2.3787    0.0000 H   0  0  0  0  0  0  0  0  0  0  0  0
   10.0942    2.2901    0.0000 H   0  0  0  0  0  0  0  0  0  0  0  0
    1.5917   -1.0311    0.0000 H   0  0  0  0  0  0  0  0  0  0  0  0
    2.1270   -1.6216    0.0000 H   0  0  0  0  0  0  0  0  0  0  0  0
    9.3110   -5.8644    0.0000 H   0  0  0  0  0  0  0  0  0  0  0  0
   10.0413   -6.1838    0.0000 H   0  0  0  0  0  0  0  0  0  0  0  0
    8.9690    3.4122    0.0000 H   0  0  0  0  0  0  0  0  0  0  0  0
    8.4336    4.0027    0.0000 H   0  0  0  0  0  0  0  0  0  0  0  0
   15.0047   -3.0149    0.0000 H   0  0  0  0  0  0  0  0  0  0  0  0
   15.6464   -2.5422    0.0000 H   0  0  0  0  0  0  0  0  0  0  0  0
   15.4069   -0.3993    0.0000 H   0  0  0  0  0  0  0  0  0  0  0  0
   14.6767   -0.0799    0.0000 H   0  0  0  0  0  0  0  0  0  0  0  0
    5.9014    5.3069    0.0000 H   0  0  0  0  0  0  0  0  0  0  0  0
    5.3661    5.8975    0.0000 H   0  0  0  0  0  0  0  0  0  0  0  0
    3.2586    5.4420    0.0000 H   0  0  0  0  0  0  0  0  0  0  0  0
    3.0148    4.6831    0.0000 H   0  0  0  0  0  0  0  0  0  0  0  0
   15.9609   -1.8232    0.0000 H   0  0  0  0  0  0  0  0  0  0  0  0
   15.8723   -1.0311    0.0000 H   0  0  0  0  0  0  0  0  0  0  0  0
    4.6190    6.1374    0.0000 H   0  0  0  0  0  0  0  0  0  0  0  0
    3.8399    5.9690    0.0000 H   0  0  0  0  0  0  0  0  0  0  0  0
    9.9255   -3.5329    0.0000 H   0  0  0  0  0  0  0  0  0  0  0  0
    4.2364   -0.7932    0.0000 H   0  0  0  0  0  0  0  0  0  0  0  0
    6.1237   -3.1331    0.0000 H   0  0  0  0  0  0  0  0  0  0  0  0
    6.2148   -3.7604    0.0000 H   0  0  0  0  0  0  0  0  0  0  0  0
    8.9143   -5.0674    0.0000 H   0  0  0  0  0  0  0  0  0  0  0  0
    3.5692   -1.7814    0.0000 H   0  0  0  0  0  0  0  0  0  0  0  0
    5.9697   -4.8353    0.0000 H   0  0  0  0  0  0  0  0  0  0  0  0
    4.5190   -4.3604    0.0000 H   0  0  0  0  0  0  0  0  0  0  0  0
    7.3744   -5.8090    0.0000 H   0  0  0  0  0  0  0  0  0  0  0  0
    3.1896   -3.3152    0.0000 H   0  0  0  0  0  0  0  0  0  0  0  0
    8.9006    1.4204    0.0000 H   0  0  0  0  0  0  0  0  0  0  0  0
  1  2  1  0  0  0  0
  1  3  1  0  0  0  0
  1  4  1  0  0  0  0
  1  5  2  0  0  0  0
  2 56  1  0  0  0  0
  3 57  1  0  0  0  0
  4154  1  0  0  0  0
  6 12  1  0  0  0  0
  6 20  1  0  0  0  0
  6 21  1  0  0  0  0
  6 74  1  0  0  0  0
  7 13  1  0  0  0  0
  7 22  1  0  0  0  0
  7 23  1  0  0  0  0
  7 75  1  0  0  0  0
  8 14  1  0  0  0  0
  8 24  1  0  0  0  0
  8 25  1  0  0  0  0
  8 76  1  0  0  0  0
  9 15  1  0  0  0  0
  9 26  1  0  0  0  0
  9 27  1  0  0  0  0
  9 77  1  0  0  0  0
 10 18  1  0  0  0  0
 10 28  1  0  0  0  0
 10 29  1  0  0  0  0
 10 78  1  0  0  0  0
 11 19  1  0  0  0  0
 11 30  1  0  0  0  0
 11 31  1  0  0  0  0
 11 79  1  0  0  0  0
 12 16  2  0  0  0  0
 12 32  1  0  0  0  0
 13 17  2  0  0  0  0
 13 33  1  0  0  0  0
 14 16  1  0  0  0  0
 14 34  2  0  0  0  0
 15 17  1  0  0  0  0
 15 35  2  0  0  0  0
 16 54  1  0  0  0  0
 17 55  1  0  0  0  0
 18 32  2  0  0  0  0
 18 34  1  0  0  0  0
 19 33  2  0  0  0  0
 19 35  1  0  0  0  0
 20 36  1  0  0  0  0
 20 80  1  0  0  0  0
 20 81  1  0  0  0  0
 21 37  1  0  0  0  0
 21 82  1  0  0  0  0
 21 83  1  0  0  0  0
 22 38  1  0  0  0  0
 22 84  1  0  0  0  0
 22 85  1  0  0  0  0
 23 39  1  0  0  0  0
 23 86  1  0  0  0  0
 23 87  1  0  0  0  0
 24 40  1  0  0  0  0
 24 88  1  0  0  0  0
 24 89  1  0  0  0  0
 25 41  1  0  0  0  0
 25 90  1  0  0  0  0
 25 91  1  0  0  0  0
 26 42  1  0  0  0  0
 26 92  1  0  0  0  0
 26 93  1  0  0  0  0
 27 43  1  0  0  0  0
 27 94  1  0  0  0  0
 27 95  1  0  0  0  0
 28 48  1  0  0  0  0
 28 96  1  0  0  0  0
 28 97  1  0  0  0  0
 29 49  1  0  0  0  0
 29 98  1  0  0  0  0
 29 99  1  0  0  0  0
 30 50  1  0  0  0  0
 30100  1  0  0  0  0
 30101  1  0  0  0  0
 31 51  1  0  0  0  0
 31102  1  0  0  0  0
 31103  1  0  0  0  0
 32104  1  0  0  0  0
 33105  1  0  0  0  0
 34106  1  0  0  0  0
 35107  1  0  0  0  0
 36 44  1  0  0  0  0
 36108  1  0  0  0  0
 36109  1  0  0  0  0
 37 44  1  0  0  0  0
 37110  1  0  0  0  0
 37111  1  0  0  0  0
 38 45  1  0  0  0  0
 38112  1  0  0  0  0
 38113  1  0  0  0  0
 39 45  1  0  0  0  0
 39114  1  0  0  0  0
 39115  1  0  0  0  0
 40 46  1  0  0  0  0
 40116  1  0  0  0  0
 40117  1  0  0  0  0
 41 46  1  0  0  0  0
 41118  1  0  0  0  0
 41119  1  0  0  0  0
 42 47  1  0  0  0  0
 42120  1  0  0  0  0
 42121  1  0  0  0  0
 43 47  1  0  0  0  0
 43122  1  0  0  0  0
 43123  1  0  0  0  0
 44124  1  0  0  0  0
 44125  1  0  0  0  0
 45126  1  0  0  0  0
 45127  1  0  0  0  0
 46128  1  0  0  0  0
 46129  1  0  0  0  0
 47130  1  0  0  0  0
 47131  1  0  0  0  0
 48 52  1  0  0  0  0
 48132  1  0  0  0  0
 48133  1  0  0  0  0
 49 52  1  0  0  0  0
 49134  1  0  0  0  0
 49135  1  0  0  0  0
 50 53  1  0  0  0  0
 50136  1  0  0  0  0
 50137  1  0  0  0  0
 51 53  1  0  0  0  0
 51138  1  0  0  0  0
 51139  1  0  0  0  0
 52140  1  0  0  0  0
 52141  1  0  0  0  0
 53142  1  0  0  0  0
 53143  1  0  0  0  0
 54 56  1  0  0  0  0
 54 60  2  0  0  0  0
 55 57  1  0  0  0  0
 55 61  2  0  0  0  0
 56 58  2  0  0  0  0
 57 59  2  0  0  0  0
 58 59  1  0  0  0  0
 58 62  1  0  0  0  0
 59 63  1  0  0  0  0
 60 64  1  0  0  0  0
 60144  1  0  0  0  0
 61 65  1  0  0  0  0
 61145  1  0  0  0  0
 62 64  1  0  0  0  0
 62 66  2  0  0  0  0
 63 65  1  0  0  0  0
 63 67  2  0  0  0  0
 64 68  2  0  0  0  0
 65 69  2  0  0  0  0
 66 70  1  0  0  0  0
 66146  1  0  0  0  0
 67 71  1  0  0  0  0
 67147  1  0  0  0  0
 68 72  1  0  0  0  0
 68148  1  0  0  0  0
 69 73  1  0  0  0  0
 69149  1  0  0  0  0
 70 72  2  0  0  0  0
 70150  1  0  0  0  0
 71 73  2  0  0  0  0
 71151  1  0  0  0  0
 72152  1  0  0  0  0
 73153  1  0  0  0  0
M  END
> <PUBCHEM_COMPOUND_CID>
71527863

> <PUBCHEM_COMPOUND_CANONICALIZED>
1

> <PUBCHEM_CACTVS_COMPLEXITY>
1600

> <PUBCHEM_CACTVS_HBOND_ACCEPTOR>
4

> <PUBCHEM_CACTVS_HBOND_DONOR>
1

> <PUBCHEM_CACTVS_ROTATABLE_BOND>
8

> <PUBCHEM_CACTVS_SUBSKEYS>
AAADcfB8OAIAAAAAAAAAAAAAAAAAAAAAAAAwYMGDBIAAAADBVAAAGgAACCAADQSAmAAwBsAAARCAQiBCAIACAAAgIAAIiAAECIgIJiKAERKAMAAkwBEIiAfAwPAO4AADAAAYAADAAAYAADAAAAAAAAAAAA==

> <PUBCHEM_IUPAC_OPENEYE_NAME>
13-hydroxy-10,16-bis(2,4,6-tricyclohexylphenyl)-12,14-dioxa-13lambda5-phosphapentacyclo[13.8.0.02,11.03,8.018,23]tricosa-1(15),2(11),3,5,7,9,16,18,20,22-decaene 13-oxide

> <PUBCHEM_IUPAC_CAS_NAME>
13-hydroxy-10,16-bis(2,4,6-tricyclohexylphenyl)-12,14-dioxa-13lambda5-phosphapentacyclo[13.8.0.02,11.03,8.018,23]tricosa-1(15),2(11),3,5,7,9,16,18,20,22-decaene 13-oxide

> <PUBCHEM_IUPAC_NAME_MARKUP>
13-hydroxy-10,16-bis(2,4,6-tricyclohexylphenyl)-12,14-dioxa-13&lambda;<SUP>5</SUP>-phosphapentacyclo[13.8.0.0<SUP>2,11</SUP>.0<SUP>3,8</SUP>.0<SUP>18,23</SUP>]tricosa-1(15),2(11),3,5,7,9,16,18,20,22-decaene 13-oxide

> <PUBCHEM_IUPAC_NAME>
13-hydroxy-10,16-bis(2,4,6-tricyclohexylphenyl)-12,14-dioxa-13lambda5-phosphapentacyclo[13.8.0.02,11.03,8.018,23]tricosa-1(15),2(11),3,5,7,9,16,18,20,22-decaene 13-oxide

> <PUBCHEM_IUPAC_SYSTEMATIC_NAME>
13-oxidanyl-10,16-bis(2,4,6-tricyclohexylphenyl)-12,14-dioxa-13lambda5-phosphapentacyclo[13.8.0.02,11.03,8.018,23]tricosa-1(15),2(11),3,5,7,9,16,18,20,22-decaene 13-oxide

> <PUBCHEM_IUPAC_TRADITIONAL_NAME>
13-hydroxy-10,16-bis(2,4,6-tricyclohexylphenyl)-12,14-dioxa-13lambda5-phosphapentacyclo[13.8.0.02,11.03,8.018,23]tricosa-1(15),2(11),3,5,7,9,16,18,20,22-decaene 13-oxide

> <PUBCHEM_IUPAC_INCHI>
InChI=1S/C68H81O4P/c69-73(70)71-67-61(63-57(47-27-11-3-12-28-47)41-53(45-23-7-1-8-24-45)42-58(63)48-29-13-4-14-30-48)39-51-35-19-21-37-55(51)65(67)66-56-38-22-20-36-52(56)40-62(68(66)72-73)64-59(49-31-15-5-16-32-49)43-54(46-25-9-2-10-26-46)44-60(64)50-33-17-6-18-34-50/h19-22,35-50H,1-18,23-34H2,(H,69,70)

> <PUBCHEM_IUPAC_INCHIKEY>
XDXHWHCIFIGZGE-UHFFFAOYSA-N

> <PUBCHEM_XLOGP3_AA>
23.3

> <PUBCHEM_EXACT_MASS>
992.587248

> <PUBCHEM_MOLECULAR_FORMULA>
C68H81O4P

> <PUBCHEM_MOLECULAR_WEIGHT>
993.3

> <PUBCHEM_OPENEYE_CAN_SMILES>
C1CCC(CC1)C2=CC(=C(C(=C2)C3CCCCC3)C4=CC5=CC=CC=C5C6=C4OP(=O)(OC7=C6C8=CC=CC=C8C=C7C9=C(C=C(C=C9C1CCCCC1)C1CCCCC1)C1CCCCC1)O)C1CCCCC1

> <PUBCHEM_OPENEYE_ISO_SMILES>
C1CCC(CC1)C2=CC(=C(C(=C2)C3CCCCC3)C4=CC5=CC=CC=C5C6=C4OP(=O)(OC7=C6C8=CC=CC=C8C=C7C9=C(C=C(C=C9C1CCCCC1)C1CCCCC1)C1CCCCC1)O)C1CCCCC1

> <PUBCHEM_CACTVS_TPSA>
55.8

> <PUBCHEM_MONOISOTOPIC_WEIGHT>
992.587248

> <PUBCHEM_TOTAL_CHARGE>
0

> <PUBCHEM_HEAVY_ATOM_COUNT>
73

> <PUBCHEM_ATOM_DEF_STEREO_COUNT>
0

> <PUBCHEM_ATOM_UDEF_STEREO_COUNT>
0

> <PUBCHEM_BOND_DEF_STEREO_COUNT>
0

> <PUBCHEM_BOND_UDEF_STEREO_COUNT>
0

> <PUBCHEM_ISOTOPIC_ATOM_COUNT>
0

> <PUBCHEM_COMPONENT_COUNT>
1

> <PUBCHEM_CACTVS_TAUTO_COUNT>
-1

> <PUBCHEM_COORDINATE_TYPE>
1
5
255

> <PUBCHEM_BONDANNOTATIONS>
12  16  8
12  32  8
13  17  8
13  33  8
14  16  8
14  34  8
15  17  8
15  35  8
18  32  8
18  34  8
19  33  8
19  35  8
54  56  8
54  60  8
55  57  8
55  61  8
56  58  8
57  59  8
58  62  8
59  63  8
60  64  8
61  65  8
62  64  8
62  66  8
63  65  8
63  67  8
64  68  8
65  69  8
66  70  8
67  71  8
68  72  8
69  73  8
70  72  8
71  73  8

$$$$
