155009189
  -OEChem-04302101022D

 68 74  0     0  0  0  0  0  0999 V2000
    2.9521    3.9977    0.0000 S   0  0  0  0  0  0  0  0  0  0  0  0
   11.2651   -0.0056    0.0000 S   0  0  0  0  0  0  0  0  0  0  0  0
    6.4110    0.5475    0.0000 P   0  0  0  0  0  0  0  0  0  0  0  0
    2.7409    4.9751    0.0000 F   0  0  0  0  0  0  0  0  0  0  0  0
    2.0000    4.3035    0.0000 F   0  0  0  0  0  0  0  0  0  0  0  0
    3.6930    4.6694    0.0000 F   0  0  0  0  0  0  0  0  0  0  0  0
    2.2112    3.3260    0.0000 F   0  0  0  0  0  0  0  0  0  0  0  0
    3.9042    3.6919    0.0000 F   0  0  0  0  0  0  0  0  0  0  0  0
   12.1610    0.4386    0.0000 F   0  0  0  0  0  0  0  0  0  0  0  0
   12.0978   -0.5594    0.0000 F   0  0  0  0  0  0  0  0  0  0  0  0
   11.3283    0.9924    0.0000 F   0  0  0  0  0  0  0  0  0  0  0  0
   11.2019   -1.0036    0.0000 F   0  0  0  0  0  0  0  0  0  0  0  0
   10.4324    0.5481    0.0000 F   0  0  0  0  0  0  0  0  0  0  0  0
    5.4110    0.5475    0.0000 O   0  0  0  0  0  0  0  0  0  0  0  0
    7.0345   -0.2344    0.0000 O   0  0  0  0  0  0  0  0  0  0  0  0
    6.4110    1.5475    0.0000 O   0  0  0  0  0  0  0  0  0  0  0  0
    7.1928    1.1710    0.0000 O   0  0  0  0  0  0  0  0  0  0  0  0
    5.0100   -1.2093    0.0000 C   0  0  0  0  0  0  0  0  0  0  0  0
    5.9110   -1.6432    0.0000 C   0  0  0  0  0  0  0  0  0  0  0  0
    4.7875   -0.2344    0.0000 C   0  0  0  0  0  0  0  0  0  0  0  0
    6.8120   -1.2093    0.0000 C   0  0  0  0  0  0  0  0  0  0  0  0
    3.7970    0.0880    0.0000 C   0  0  0  0  0  0  0  0  0  0  0  0
    7.6816   -1.7827    0.0000 C   0  0  0  0  0  0  0  0  0  0  0  0
    4.2575   -1.9295    0.0000 C   0  0  0  0  0  0  0  0  0  0  0  0
    5.8172   -2.6806    0.0000 C   0  0  0  0  0  0  0  0  0  0  0  0
    3.1633    3.0203    0.0000 C   0  0  0  0  0  0  0  0  0  0  0  0
   10.3692   -0.4499    0.0000 C   0  0  0  0  0  0  0  0  0  0  0  0
    3.2598   -1.6301    0.0000 C   0  0  0  0  0  0  0  0  0  0  0  0
    6.6733   -3.2740    0.0000 C   0  0  0  0  0  0  0  0  0  0  0  0
    3.5858    1.0654    0.0000 C   0  0  0  0  0  0  0  0  0  0  0  0
    8.5775   -1.3385    0.0000 C   0  0  0  0  0  0  0  0  0  0  0  0
    3.0280   -0.6146    0.0000 C   0  0  0  0  0  0  0  0  0  0  0  0
    7.6117   -2.8220    0.0000 C   0  0  0  0  0  0  0  0  0  0  0  0
    2.4225    2.3486    0.0000 C   0  0  0  0  0  0  0  0  0  0  0  0
    9.5366    0.1038    0.0000 C   0  0  0  0  0  0  0  0  0  0  0  0
    4.1154    2.7145    0.0000 C   0  0  0  0  0  0  0  0  0  0  0  0
   10.3061   -1.4479    0.0000 C   0  0  0  0  0  0  0  0  0  0  0  0
    2.6337    1.3712    0.0000 C   0  0  0  0  0  0  0  0  0  0  0  0
    8.6407   -0.3405    0.0000 C   0  0  0  0  0  0  0  0  0  0  0  0
    4.3267    1.7370    0.0000 C   0  0  0  0  0  0  0  0  0  0  0  0
    9.4102   -1.8922    0.0000 C   0  0  0  0  0  0  0  0  0  0  0  0
    4.5233   -2.9814    0.0000 C   0  0  0  0  0  0  0  0  0  0  0  0
    5.1854   -3.5627    0.0000 C   0  0  0  0  0  0  0  0  0  0  0  0
    2.4588   -2.3620    0.0000 C   0  0  0  0  0  0  0  0  0  0  0  0
    7.1516   -4.2479    0.0000 C   0  0  0  0  0  0  0  0  0  0  0  0
    3.7394   -3.7316    0.0000 C   0  0  0  0  0  0  0  0  0  0  0  0
    5.5804   -4.7165    0.0000 C   0  0  0  0  0  0  0  0  0  0  0  0
    2.7002   -3.4198    0.0000 C   0  0  0  0  0  0  0  0  0  0  0  0
    6.6010   -4.9751    0.0000 C   0  0  0  0  0  0  0  0  0  0  0  0
    2.4363   -0.4296    0.0000 H   0  0  0  0  0  0  0  0  0  0  0  0
    8.1253   -3.1693    0.0000 H   0  0  0  0  0  0  0  0  0  0  0  0
    1.8322    2.5382    0.0000 H   0  0  0  0  0  0  0  0  0  0  0  0
    9.5757    0.7226    0.0000 H   0  0  0  0  0  0  0  0  0  0  0  0
    4.5748    3.1309    0.0000 H   0  0  0  0  0  0  0  0  0  0  0  0
   10.8223   -1.7912    0.0000 H   0  0  0  0  0  0  0  0  0  0  0  0
    2.1744    0.9548    0.0000 H   0  0  0  0  0  0  0  0  0  0  0  0
    8.1244    0.0029    0.0000 H   0  0  0  0  0  0  0  0  0  0  0  0
    4.9170    1.5475    0.0000 H   0  0  0  0  0  0  0  0  0  0  0  0
    9.3710   -2.5109    0.0000 H   0  0  0  0  0  0  0  0  0  0  0  0
    5.1192   -3.1527    0.0000 H   0  0  0  0  0  0  0  0  0  0  0  0
    4.5720   -3.4726    0.0000 H   0  0  0  0  0  0  0  0  0  0  0  0
    1.8670   -2.1769    0.0000 H   0  0  0  0  0  0  0  0  0  0  0  0
    7.7687   -4.3071    0.0000 H   0  0  0  0  0  0  0  0  0  0  0  0
    3.8844   -4.3344    0.0000 H   0  0  0  0  0  0  0  0  0  0  0  0
    5.1602   -5.1725    0.0000 H   0  0  0  0  0  0  0  0  0  0  0  0
    2.2474   -3.8432    0.0000 H   0  0  0  0  0  0  0  0  0  0  0  0
    6.8062   -5.5602    0.0000 H   0  0  0  0  0  0  0  0  0  0  0  0
    6.9480    1.8575    0.0000 H   0  0  0  0  0  0  0  0  0  0  0  0
  1  4  1  0  0  0  0
  1  5  1  0  0  0  0
  1  6  1  0  0  0  0
  1  7  1  0  0  0  0
  1  8  1  0  0  0  0
  1 26  1  0  0  0  0
  2  9  1  0  0  0  0
  2 10  1  0  0  0  0
  2 11  1  0  0  0  0
  2 12  1  0  0  0  0
  2 13  1  0  0  0  0
  2 27  1  0  0  0  0
  3 14  1  0  0  0  0
  3 15  1  0  0  0  0
  3 16  1  0  0  0  0
  3 17  2  0  0  0  0
 14 20  1  0  0  0  0
 15 21  1  0  0  0  0
 16 68  1  0  0  0  0
 18 19  1  0  0  0  0
 18 20  2  0  0  0  0
 18 24  1  0  0  0  0
 19 21  2  0  0  0  0
 19 25  1  0  0  0  0
 20 22  1  0  0  0  0
 21 23  1  0  0  0  0
 22 30  1  0  0  0  0
 22 32  2  0  0  0  0
 23 31  1  0  0  0  0
 23 33  2  0  0  0  0
 24 28  1  0  0  0  0
 24 42  2  0  0  0  0
 25 29  1  0  0  0  0
 25 43  2  0  0  0  0
 26 34  2  0  0  0  0
 26 36  1  0  0  0  0
 27 35  2  0  0  0  0
 27 37  1  0  0  0  0
 28 32  1  0  0  0  0
 28 44  2  0  0  0  0
 29 33  1  0  0  0  0
 29 45  2  0  0  0  0
 30 38  2  0  0  0  0
 30 40  1  0  0  0  0
 31 39  2  0  0  0  0
 31 41  1  0  0  0  0
 32 50  1  0  0  0  0
 33 51  1  0  0  0  0
 34 38  1  0  0  0  0
 34 52  1  0  0  0  0
 35 39  1  0  0  0  0
 35 53  1  0  0  0  0
 36 40  2  0  0  0  0
 36 54  1  0  0  0  0
 37 41  2  0  0  0  0
 37 55  1  0  0  0  0
 38 56  1  0  0  0  0
 39 57  1  0  0  0  0
 40 58  1  0  0  0  0
 41 59  1  0  0  0  0
 42 46  1  0  0  0  0
 42 60  1  0  0  0  0
 43 47  1  0  0  0  0
 43 61  1  0  0  0  0
 44 48  1  0  0  0  0
 44 62  1  0  0  0  0
 45 49  1  0  0  0  0
 45 63  1  0  0  0  0
 46 48  2  0  0  0  0
 46 64  1  0  0  0  0
 47 49  2  0  0  0  0
 47 65  1  0  0  0  0
 48 66  1  0  0  0  0
 49 67  1  0  0  0  0
M  END
> <PUBCHEM_COMPOUND_CID>
155009189

> <PUBCHEM_COMPOUND_CANONICALIZED>
1

> <PUBCHEM_CACTVS_COMPLEXITY>
1220

> <PUBCHEM_CACTVS_HBOND_ACCEPTOR>
14

> <PUBCHEM_CACTVS_HBOND_DONOR>
1

> <PUBCHEM_CACTVS_ROTATABLE_BOND>
2

> <PUBCHEM_CACTVS_SUBSKEYS>
AAADceB8OcJgAAAAAAAAAAAAAAAAAAAAAAAwYMGDBIAAAADBVAAAGgQACCQADASA2AAwB8AAARCAQiBCAIACAAAgIAAIiBgECIgIJiKAERKAMAAkwBEIiAfAwPAO8AADAAAYAADgAAYAADAAAAAAAAAAAA==

> <PUBCHEM_IUPAC_OPENEYE_NAME>
pentafluoro-[4-[13-hydroxy-13-oxo-16-[4-(pentafluoro-lambda6-sulfanyl)phenyl]-12,14-dioxa-13lambda5-phosphapentacyclo[13.8.0.02,11.03,8.018,23]tricosa-1(15),2(11),3,5,7,9,16,18,20,22-decaen-10-yl]phenyl]-lambda6-sulfane

> <PUBCHEM_IUPAC_CAS_NAME>
pentafluoro-[4-[13-hydroxy-13-oxo-16-[4-(pentafluoro-lambda6-sulfanyl)phenyl]-12,14-dioxa-13lambda5-phosphapentacyclo[13.8.0.02,11.03,8.018,23]tricosa-1(15),2(11),3,5,7,9,16,18,20,22-decaen-10-yl]phenyl]-lambda6-sulfane

> <PUBCHEM_IUPAC_NAME_MARKUP>
pentafluoro-[4-[13-hydroxy-13-oxo-16-[4-(pentafluoro-&lambda;<SUP>6</SUP>-sulfanyl)phenyl]-12,14-dioxa-13&lambda;<SUP>5</SUP>-phosphapentacyclo[13.8.0.0<SUP>2,11</SUP>.0<SUP>3,8</SUP>.0<SUP>18,23</SUP>]tricosa-1(15),2(11),3,5,7,9,16,18,20,22-decaen-10-yl]phenyl]-&lambda;<SUP>6</SUP>-sulfane

> <PUBCHEM_IUPAC_NAME>
pentafluoro-[4-[13-hydroxy-13-oxo-16-[4-(pentafluoro-lambda6-sulfanyl)phenyl]-12,14-dioxa-13lambda5-phosphapentacyclo[13.8.0.02,11.03,8.018,23]tricosa-1(15),2(11),3,5,7,9,16,18,20,22-decaen-10-yl]phenyl]-lambda6-sulfane

> <PUBCHEM_IUPAC_SYSTEMATIC_NAME>
pentakis(fluoranyl)-[4-[13-oxidanyl-13-oxidanylidene-16-[4-[pentakis(fluoranyl)-lambda6-sulfanyl]phenyl]-12,14-dioxa-13lambda5-phosphapentacyclo[13.8.0.02,11.03,8.018,23]tricosa-1(15),2(11),3,5,7,9,16,18,20,22-decaen-10-yl]phenyl]-lambda6-sulfane

> <PUBCHEM_IUPAC_TRADITIONAL_NAME>
pentafluoro-[4-[13-hydroxy-13-keto-16-(4-pentafluoropersulfuranylphenyl)-12,14-dioxa-13lambda5-phosphapentacyclo[13.8.0.02,11.03,8.018,23]tricosa-1(15),2(11),3,5,7,9,16,18,20,22-decaen-10-yl]phenyl]-lambda6-sulfane

> <PUBCHEM_IUPAC_INCHI>
InChI=1S/C32H19F10O4PS2/c33-48(34,35,36,37)23-13-9-19(10-14-23)27-17-21-5-1-3-7-25(21)29-30-26-8-4-2-6-22(26)18-28(32(30)46-47(43,44)45-31(27)29)20-11-15-24(16-12-20)49(38,39,40,41)42/h1-18H,(H,43,44)

> <PUBCHEM_IUPAC_INCHIKEY>
TZMBMLPJUYHNPW-UHFFFAOYSA-N

> <PUBCHEM_XLOGP3_AA>
14.6

> <PUBCHEM_EXACT_MASS>
752.03027

> <PUBCHEM_MOLECULAR_FORMULA>
C32H19F10O4PS2

> <PUBCHEM_MOLECULAR_WEIGHT>
752.6

> <PUBCHEM_OPENEYE_CAN_SMILES>
C1=CC=C2C(=C1)C=C(C3=C2C4=C(C(=CC5=CC=CC=C54)C6=CC=C(C=C6)S(F)(F)(F)(F)F)OP(=O)(O3)O)C7=CC=C(C=C7)S(F)(F)(F)(F)F

> <PUBCHEM_OPENEYE_ISO_SMILES>
C1=CC=C2C(=C1)C=C(C3=C2C4=C(C(=CC5=CC=CC=C54)C6=CC=C(C=C6)S(F)(F)(F)(F)F)OP(=O)(O3)O)C7=CC=C(C=C7)S(F)(F)(F)(F)F

> <PUBCHEM_CACTVS_TPSA>
57.8

> <PUBCHEM_MONOISOTOPIC_WEIGHT>
752.03027

> <PUBCHEM_TOTAL_CHARGE>
0

> <PUBCHEM_HEAVY_ATOM_COUNT>
49

> <PUBCHEM_ATOM_DEF_STEREO_COUNT>
0

> <PUBCHEM_ATOM_UDEF_STEREO_COUNT>
0

> <PUBCHEM_BOND_DEF_STEREO_COUNT>
0

> <PUBCHEM_BOND_UDEF_STEREO_COUNT>
0

> <PUBCHEM_ISOTOPIC_ATOM_COUNT>
0

> <PUBCHEM_COMPONENT_COUNT>
1

> <PUBCHEM_CACTVS_TAUTO_COUNT>
-1

> <PUBCHEM_COORDINATE_TYPE>
1
5
255

> <PUBCHEM_BONDANNOTATIONS>
18  20  8
18  24  8
19  21  8
19  25  8
20  22  8
21  23  8
22  32  8
23  33  8
24  28  8
24  42  8
25  29  8
25  43  8
26  34  8
26  36  8
27  35  8
27  37  8
28  32  8
28  44  8
29  33  8
29  45  8
30  38  8
30  40  8
31  39  8
31  41  8
34  38  8
35  39  8
36  40  8
37  41  8
42  46  8
43  47  8
44  48  8
45  49  8
46  48  8
47  49  8

$$$$
