154725548
  -OEChem-04302101002D

122132  0     0  0  0  0  0  0999 V2000
   10.1154    0.5999    0.0000 P   0  0  0  0  0  0  0  0  0  0  0  0
   17.7087   -4.7340    0.0000 F   0  0  0  0  0  0  0  0  0  0  0  0
   16.6475   -5.6688    0.0000 F   0  0  0  0  0  0  0  0  0  0  0  0
   16.7739   -3.6728    0.0000 F   0  0  0  0  0  0  0  0  0  0  0  0
    2.0000    0.9976    0.0000 F   0  0  0  0  0  0  0  0  0  0  0  0
    2.0692    2.4101    0.0000 F   0  0  0  0  0  0  0  0  0  0  0  0
    3.4125    0.9284    0.0000 F   0  0  0  0  0  0  0  0  0  0  0  0
   15.0504    2.8774    0.0000 F   0  0  0  0  0  0  0  0  0  0  0  0
   13.7103    3.3290    0.0000 F   0  0  0  0  0  0  0  0  0  0  0  0
   13.2587    1.9889    0.0000 F   0  0  0  0  0  0  0  0  0  0  0  0
   11.0198    4.9931    0.0000 F   0  0  0  0  0  0  0  0  0  0  0  0
   11.4423    3.0382    0.0000 F   0  0  0  0  0  0  0  0  0  0  0  0
   12.2085    4.2269    0.0000 F   0  0  0  0  0  0  0  0  0  0  0  0
   13.0535   -7.0425    0.0000 F   0  0  0  0  0  0  0  0  0  0  0  0
   14.4400   -6.7635    0.0000 F   0  0  0  0  0  0  0  0  0  0  0  0
   12.7746   -5.6561    0.0000 F   0  0  0  0  0  0  0  0  0  0  0  0
    3.5889    5.9449    0.0000 F   0  0  0  0  0  0  0  0  0  0  0  0
    2.8227    4.7562    0.0000 F   0  0  0  0  0  0  0  0  0  0  0  0
    4.7776    5.1787    0.0000 F   0  0  0  0  0  0  0  0  0  0  0  0
   18.0371    0.4518    0.0000 F   0  0  0  0  0  0  0  0  0  0  0  0
   17.1023    1.5130    0.0000 F   0  0  0  0  0  0  0  0  0  0  0  0
   16.9759   -0.4830    0.0000 F   0  0  0  0  0  0  0  0  0  0  0  0
    8.6678    7.0425    0.0000 F   0  0  0  0  0  0  0  0  0  0  0  0
    9.8565    6.2763    0.0000 F   0  0  0  0  0  0  0  0  0  0  0  0
    7.9016    5.8538    0.0000 F   0  0  0  0  0  0  0  0  0  0  0  0
   10.7389   -0.1820    0.0000 O   0  0  0  0  0  0  0  0  0  0  0  0
    9.1154    0.5999    0.0000 O   0  0  0  0  0  0  0  0  0  0  0  0
   10.8972    1.2234    0.0000 O   0  0  0  0  0  0  0  0  0  0  0  0
   10.1154    1.5999    0.0000 O   0  0  0  0  0  0  0  0  0  0  0  0
    9.6154   -1.5908    0.0000 C   0  0  0  0  0  0  0  0  0  0  0  0
    8.7144   -1.1569    0.0000 C   0  0  0  0  0  0  0  0  0  0  0  0
   10.5163   -1.1569    0.0000 C   0  0  0  0  0  0  0  0  0  0  0  0
    8.4919   -0.1820    0.0000 C   0  0  0  0  0  0  0  0  0  0  0  0
    9.5215   -2.6282    0.0000 C   0  0  0  0  0  0  0  0  0  0  0  0
    7.9618   -1.8771    0.0000 C   0  0  0  0  0  0  0  0  0  0  0  0
   11.3859   -1.7303    0.0000 C   0  0  0  0  0  0  0  0  0  0  0  0
    7.5014    0.1404    0.0000 C   0  0  0  0  0  0  0  0  0  0  0  0
   10.3776   -3.2216    0.0000 C   0  0  0  0  0  0  0  0  0  0  0  0
    6.9642   -1.5777    0.0000 C   0  0  0  0  0  0  0  0  0  0  0  0
   11.3161   -2.7696    0.0000 C   0  0  0  0  0  0  0  0  0  0  0  0
    6.7324   -0.5622    0.0000 C   0  0  0  0  0  0  0  0  0  0  0  0
   12.3839   -1.7935    0.0000 C   0  0  0  0  0  0  0  0  0  0  0  0
    7.2901    1.1178    0.0000 C   0  0  0  0  0  0  0  0  0  0  0  0
    8.5334   -3.0762    0.0000 C   0  0  0  0  0  0  0  0  0  0  0  0
    7.6661   -2.9210    0.0000 C   0  0  0  0  0  0  0  0  0  0  0  0
   10.3049   -4.3041    0.0000 C   0  0  0  0  0  0  0  0  0  0  0  0
    5.9045   -1.8110    0.0000 C   0  0  0  0  0  0  0  0  0  0  0  0
   12.8282   -2.6894    0.0000 C   0  0  0  0  0  0  0  0  0  0  0  0
    6.3380    1.4236    0.0000 C   0  0  0  0  0  0  0  0  0  0  0  0
   12.9376   -0.9608    0.0000 C   0  0  0  0  0  0  0  0  0  0  0  0
    8.0310    1.7894    0.0000 C   0  0  0  0  0  0  0  0  0  0  0  0
   13.8262   -2.7526    0.0000 C   0  0  0  0  0  0  0  0  0  0  0  0
    6.1268    2.4010    0.0000 C   0  0  0  0  0  0  0  0  0  0  0  0
   13.9356   -1.0240    0.0000 C   0  0  0  0  0  0  0  0  0  0  0  0
    7.8198    2.7669    0.0000 C   0  0  0  0  0  0  0  0  0  0  0  0
    8.4356   -4.1568    0.0000 C   0  0  0  0  0  0  0  0  0  0  0  0
    6.5177   -3.3316    0.0000 C   0  0  0  0  0  0  0  0  0  0  0  0
    9.3273   -4.7749    0.0000 C   0  0  0  0  0  0  0  0  0  0  0  0
    5.6792   -2.6949    0.0000 C   0  0  0  0  0  0  0  0  0  0  0  0
   14.3799   -1.9199    0.0000 C   0  0  0  0  0  0  0  0  0  0  0  0
    6.8677    3.0727    0.0000 C   0  0  0  0  0  0  0  0  0  0  0  0
   14.2705   -3.6485    0.0000 C   0  0  0  0  0  0  0  0  0  0  0  0
    5.1747    2.7068    0.0000 C   0  0  0  0  0  0  0  0  0  0  0  0
   14.4894   -0.1913    0.0000 C   0  0  0  0  0  0  0  0  0  0  0  0
    8.5606    3.4385    0.0000 C   0  0  0  0  0  0  0  0  0  0  0  0
   13.7167   -4.4812    0.0000 C   0  0  0  0  0  0  0  0  0  0  0  0
    4.9635    3.6842    0.0000 C   0  0  0  0  0  0  0  0  0  0  0  0
   15.2685   -3.7117    0.0000 C   0  0  0  0  0  0  0  0  0  0  0  0
    4.4338    2.0351    0.0000 C   0  0  0  0  0  0  0  0  0  0  0  0
   15.4874   -0.2545    0.0000 C   0  0  0  0  0  0  0  0  0  0  0  0
    8.3494    4.4160    0.0000 C   0  0  0  0  0  0  0  0  0  0  0  0
   14.0451    0.7046    0.0000 C   0  0  0  0  0  0  0  0  0  0  0  0
    9.5127    3.1328    0.0000 C   0  0  0  0  0  0  0  0  0  0  0  0
   14.1610   -5.3771    0.0000 C   0  0  0  0  0  0  0  0  0  0  0  0
    4.0114    3.9900    0.0000 C   0  0  0  0  0  0  0  0  0  0  0  0
   15.7127   -4.6076    0.0000 C   0  0  0  0  0  0  0  0  0  0  0  0
    3.4817    2.3409    0.0000 C   0  0  0  0  0  0  0  0  0  0  0  0
   16.0411    0.5782    0.0000 C   0  0  0  0  0  0  0  0  0  0  0  0
    9.0903    5.0876    0.0000 C   0  0  0  0  0  0  0  0  0  0  0  0
   14.5988    1.5373    0.0000 C   0  0  0  0  0  0  0  0  0  0  0  0
   10.2536    3.8044    0.0000 C   0  0  0  0  0  0  0  0  0  0  0  0
   15.1590   -5.4403    0.0000 C   0  0  0  0  0  0  0  0  0  0  0  0
    3.2705    3.3184    0.0000 C   0  0  0  0  0  0  0  0  0  0  0  0
   15.5968    1.4741    0.0000 C   0  0  0  0  0  0  0  0  0  0  0  0
   10.0424    4.7818    0.0000 C   0  0  0  0  0  0  0  0  0  0  0  0
   16.7107   -4.6708    0.0000 C   0  0  0  0  0  0  0  0  0  0  0  0
    2.7409    1.6693    0.0000 C   0  0  0  0  0  0  0  0  0  0  0  0
   14.1546    2.4332    0.0000 C   0  0  0  0  0  0  0  0  0  0  0  0
   11.2310    4.0156    0.0000 C   0  0  0  0  0  0  0  0  0  0  0  0
   13.6073   -6.2098    0.0000 C   0  0  0  0  0  0  0  0  0  0  0  0
    3.8001    4.9675    0.0000 C   0  0  0  0  0  0  0  0  0  0  0  0
   17.0391    0.5150    0.0000 C   0  0  0  0  0  0  0  0  0  0  0  0
    8.8790    6.0651    0.0000 C   0  0  0  0  0  0  0  0  0  0  0  0
   11.8297   -3.1169    0.0000 H   0  0  0  0  0  0  0  0  0  0  0  0
    6.1406   -0.3772    0.0000 H   0  0  0  0  0  0  0  0  0  0  0  0
    8.0279   -2.7172    0.0000 H   0  0  0  0  0  0  0  0  0  0  0  0
    8.1190   -3.3444    0.0000 H   0  0  0  0  0  0  0  0  0  0  0  0
   10.8185   -4.6514    0.0000 H   0  0  0  0  0  0  0  0  0  0  0  0
    5.4734   -1.3654    0.0000 H   0  0  0  0  0  0  0  0  0  0  0  0
   12.4849   -3.2057    0.0000 H   0  0  0  0  0  0  0  0  0  0  0  0
    5.8787    1.0072    0.0000 H   0  0  0  0  0  0  0  0  0  0  0  0
   12.6622   -0.4054    0.0000 H   0  0  0  0  0  0  0  0  0  0  0  0
    8.6213    1.5999    0.0000 H   0  0  0  0  0  0  0  0  0  0  0  0
    7.8739   -4.4193    0.0000 H   0  0  0  0  0  0  0  0  0  0  0  0
    6.4232   -3.9444    0.0000 H   0  0  0  0  0  0  0  0  0  0  0  0
    9.2786   -5.3930    0.0000 H   0  0  0  0  0  0  0  0  0  0  0  0
    5.0938   -2.8992    0.0000 H   0  0  0  0  0  0  0  0  0  0  0  0
   14.9987   -1.9591    0.0000 H   0  0  0  0  0  0  0  0  0  0  0  0
    6.7367    3.6787    0.0000 H   0  0  0  0  0  0  0  0  0  0  0  0
   10.8048    1.8364    0.0000 H   0  0  0  0  0  0  0  0  0  0  0  0
   13.0980   -4.4420    0.0000 H   0  0  0  0  0  0  0  0  0  0  0  0
    5.4228    4.1007    0.0000 H   0  0  0  0  0  0  0  0  0  0  0  0
   15.6118   -3.1954    0.0000 H   0  0  0  0  0  0  0  0  0  0  0  0
    4.5648    1.4291    0.0000 H   0  0  0  0  0  0  0  0  0  0  0  0
   15.7628   -0.8100    0.0000 H   0  0  0  0  0  0  0  0  0  0  0  0
    7.7591    4.6056    0.0000 H   0  0  0  0  0  0  0  0  0  0  0  0
   13.4263    0.7437    0.0000 H   0  0  0  0  0  0  0  0  0  0  0  0
    9.6437    2.5267    0.0000 H   0  0  0  0  0  0  0  0  0  0  0  0
   15.4345   -5.9957    0.0000 H   0  0  0  0  0  0  0  0  0  0  0  0
    2.6802    3.5080    0.0000 H   0  0  0  0  0  0  0  0  0  0  0  0
   15.9401    1.9903    0.0000 H   0  0  0  0  0  0  0  0  0  0  0  0
   10.5017    5.1983    0.0000 H   0  0  0  0  0  0  0  0  0  0  0  0
  1 26  1  0  0  0  0
  1 27  1  0  0  0  0
  1 28  1  0  0  0  0
  1 29  2  0  0  0  0
  2 86  1  0  0  0  0
  3 86  1  0  0  0  0
  4 86  1  0  0  0  0
  5 87  1  0  0  0  0
  6 87  1  0  0  0  0
  7 87  1  0  0  0  0
  8 88  1  0  0  0  0
  9 88  1  0  0  0  0
 10 88  1  0  0  0  0
 11 89  1  0  0  0  0
 12 89  1  0  0  0  0
 13 89  1  0  0  0  0
 14 90  1  0  0  0  0
 15 90  1  0  0  0  0
 16 90  1  0  0  0  0
 17 91  1  0  0  0  0
 18 91  1  0  0  0  0
 19 91  1  0  0  0  0
 20 92  1  0  0  0  0
 21 92  1  0  0  0  0
 22 92  1  0  0  0  0
 23 93  1  0  0  0  0
 24 93  1  0  0  0  0
 25 93  1  0  0  0  0
 26 32  1  0  0  0  0
 27 33  1  0  0  0  0
 28110  1  0  0  0  0
 30 31  1  0  0  0  0
 30 32  2  0  0  0  0
 30 34  1  0  0  0  0
 31 33  2  0  0  0  0
 31 35  1  0  0  0  0
 32 36  1  0  0  0  0
 33 37  1  0  0  0  0
 34 38  1  0  0  0  0
 34 44  2  0  0  0  0
 35 39  1  0  0  0  0
 35 45  2  0  0  0  0
 36 40  2  0  0  0  0
 36 42  1  0  0  0  0
 37 41  2  0  0  0  0
 37 43  1  0  0  0  0
 38 40  1  0  0  0  0
 38 46  2  0  0  0  0
 39 41  1  0  0  0  0
 39 47  2  0  0  0  0
 40 94  1  0  0  0  0
 41 95  1  0  0  0  0
 42 48  2  0  0  0  0
 42 50  1  0  0  0  0
 43 49  2  0  0  0  0
 43 51  1  0  0  0  0
 44 56  1  0  0  0  0
 44 96  1  0  0  0  0
 45 57  1  0  0  0  0
 45 97  1  0  0  0  0
 46 58  1  0  0  0  0
 46 98  1  0  0  0  0
 47 59  1  0  0  0  0
 47 99  1  0  0  0  0
 48 52  1  0  0  0  0
 48100  1  0  0  0  0
 49 53  1  0  0  0  0
 49101  1  0  0  0  0
 50 54  2  0  0  0  0
 50102  1  0  0  0  0
 51 55  2  0  0  0  0
 51103  1  0  0  0  0
 52 60  2  0  0  0  0
 52 62  1  0  0  0  0
 53 61  2  0  0  0  0
 53 63  1  0  0  0  0
 54 60  1  0  0  0  0
 54 64  1  0  0  0  0
 55 61  1  0  0  0  0
 55 65  1  0  0  0  0
 56 58  2  0  0  0  0
 56104  1  0  0  0  0
 57 59  2  0  0  0  0
 57105  1  0  0  0  0
 58106  1  0  0  0  0
 59107  1  0  0  0  0
 60108  1  0  0  0  0
 61109  1  0  0  0  0
 62 66  2  0  0  0  0
 62 68  1  0  0  0  0
 63 67  2  0  0  0  0
 63 69  1  0  0  0  0
 64 70  2  0  0  0  0
 64 72  1  0  0  0  0
 65 71  2  0  0  0  0
 65 73  1  0  0  0  0
 66 74  1  0  0  0  0
 66111  1  0  0  0  0
 67 75  1  0  0  0  0
 67112  1  0  0  0  0
 68 76  2  0  0  0  0
 68113  1  0  0  0  0
 69 77  2  0  0  0  0
 69114  1  0  0  0  0
 70 78  1  0  0  0  0
 70115  1  0  0  0  0
 71 79  1  0  0  0  0
 71116  1  0  0  0  0
 72 80  2  0  0  0  0
 72117  1  0  0  0  0
 73 81  2  0  0  0  0
 73118  1  0  0  0  0
 74 82  2  0  0  0  0
 74 90  1  0  0  0  0
 75 83  2  0  0  0  0
 75 91  1  0  0  0  0
 76 82  1  0  0  0  0
 76 86  1  0  0  0  0
 77 83  1  0  0  0  0
 77 87  1  0  0  0  0
 78 84  2  0  0  0  0
 78 92  1  0  0  0  0
 79 85  2  0  0  0  0
 79 93  1  0  0  0  0
 80 84  1  0  0  0  0
 80 88  1  0  0  0  0
 81 85  1  0  0  0  0
 81 89  1  0  0  0  0
 82119  1  0  0  0  0
 83120  1  0  0  0  0
 84121  1  0  0  0  0
 85122  1  0  0  0  0
M  END
> <PUBCHEM_COMPOUND_CID>
154725548

> <PUBCHEM_COMPOUND_CANONICALIZED>
1

> <PUBCHEM_CACTVS_COMPLEXITY>
2210

> <PUBCHEM_CACTVS_HBOND_ACCEPTOR>
28

> <PUBCHEM_CACTVS_HBOND_DONOR>
1

> <PUBCHEM_CACTVS_ROTATABLE_BOND>
6

> <PUBCHEM_CACTVS_SUBSKEYS>
AAADceB8OcIAAAAAAAAAAAAAAAAAAAAAAAAwYMGDBIAAAADBVAAAGwAACCAADASAmBAwBsAAARCAQiBCAIACAAAgIAAIiAAECIgIJiKAERKAMAAkwBEIiAfAwPAO4AADAAAYAADAAAYAADAAAAAAAAAAAA==

> <PUBCHEM_IUPAC_OPENEYE_NAME>
10,16-bis[3,5-bis[3,5-bis(trifluoromethyl)phenyl]phenyl]-13-hydroxy-12,14-dioxa-13lambda5-phosphapentacyclo[13.8.0.02,11.03,8.018,23]tricosa-1(15),2(11),3,5,7,9,16,18,20,22-decaene 13-oxide

> <PUBCHEM_IUPAC_CAS_NAME>
10,16-bis[3,5-bis[3,5-bis(trifluoromethyl)phenyl]phenyl]-13-hydroxy-12,14-dioxa-13lambda5-phosphapentacyclo[13.8.0.02,11.03,8.018,23]tricosa-1(15),2(11),3,5,7,9,16,18,20,22-decaene 13-oxide

> <PUBCHEM_IUPAC_NAME_MARKUP>
10,16-bis[3,5-bis[3,5-bis(trifluoromethyl)phenyl]phenyl]-13-hydroxy-12,14-dioxa-13&lambda;<SUP>5</SUP>-phosphapentacyclo[13.8.0.0<SUP>2,11</SUP>.0<SUP>3,8</SUP>.0<SUP>18,23</SUP>]tricosa-1(15),2(11),3,5,7,9,16,18,20,22-decaene 13-oxide

> <PUBCHEM_IUPAC_NAME>
10,16-bis[3,5-bis[3,5-bis(trifluoromethyl)phenyl]phenyl]-13-hydroxy-12,14-dioxa-13lambda5-phosphapentacyclo[13.8.0.02,11.03,8.018,23]tricosa-1(15),2(11),3,5,7,9,16,18,20,22-decaene 13-oxide

> <PUBCHEM_IUPAC_SYSTEMATIC_NAME>
10,16-bis[3,5-bis[3,5-bis(trifluoromethyl)phenyl]phenyl]-13-oxidanyl-12,14-dioxa-13lambda5-phosphapentacyclo[13.8.0.02,11.03,8.018,23]tricosa-1(15),2(11),3,5,7,9,16,18,20,22-decaene 13-oxide

> <PUBCHEM_IUPAC_TRADITIONAL_NAME>
10,16-bis[3,5-bis[3,5-bis(trifluoromethyl)phenyl]phenyl]-13-hydroxy-12,14-dioxa-13lambda5-phosphapentacyclo[13.8.0.02,11.03,8.018,23]tricosa-1(15),2(11),3,5,7,9,16,18,20,22-decaene 13-oxide

> <PUBCHEM_IUPAC_INCHI>
InChI=1S/C64H29F24O4P/c65-57(66,67)41-15-35(16-42(25-41)58(68,69)70)31-9-32(36-17-43(59(71,72)73)26-44(18-36)60(74,75)76)12-39(11-31)51-23-29-5-1-3-7-49(29)53-54-50-8-4-2-6-30(50)24-52(56(54)92-93(89,90)91-55(51)53)40-13-33(37-19-45(61(77,78)79)27-46(20-37)62(80,81)82)10-34(14-40)38-21-47(63(83,84)85)28-48(22-38)64(86,87)88/h1-28H,(H,89,90)

> <PUBCHEM_IUPAC_INCHIKEY>
KRUXUGCPQHKDNQ-UHFFFAOYSA-N

> <PUBCHEM_XLOGP3_AA>
21.6

> <PUBCHEM_EXACT_MASS>
1348.142022

> <PUBCHEM_MOLECULAR_FORMULA>
C64H29F24O4P

> <PUBCHEM_MOLECULAR_WEIGHT>
1348.8

> <PUBCHEM_OPENEYE_CAN_SMILES>
C1=CC=C2C(=C1)C=C(C3=C2C4=C(C(=CC5=CC=CC=C54)C6=CC(=CC(=C6)C7=CC(=CC(=C7)C(F)(F)F)C(F)(F)F)C8=CC(=CC(=C8)C(F)(F)F)C(F)(F)F)OP(=O)(O3)O)C9=CC(=CC(=C9)C1=CC(=CC(=C1)C(F)(F)F)C(F)(F)F)C1=CC(=CC(=C1)C(F)(F)F)C(F)(F)F

> <PUBCHEM_OPENEYE_ISO_SMILES>
C1=CC=C2C(=C1)C=C(C3=C2C4=C(C(=CC5=CC=CC=C54)C6=CC(=CC(=C6)C7=CC(=CC(=C7)C(F)(F)F)C(F)(F)F)C8=CC(=CC(=C8)C(F)(F)F)C(F)(F)F)OP(=O)(O3)O)C9=CC(=CC(=C9)C1=CC(=CC(=C1)C(F)(F)F)C(F)(F)F)C1=CC(=CC(=C1)C(F)(F)F)C(F)(F)F

> <PUBCHEM_CACTVS_TPSA>
55.8

> <PUBCHEM_MONOISOTOPIC_WEIGHT>
1348.142022

> <PUBCHEM_TOTAL_CHARGE>
0

> <PUBCHEM_HEAVY_ATOM_COUNT>
93

> <PUBCHEM_ATOM_DEF_STEREO_COUNT>
0

> <PUBCHEM_ATOM_UDEF_STEREO_COUNT>
0

> <PUBCHEM_BOND_DEF_STEREO_COUNT>
0

> <PUBCHEM_BOND_UDEF_STEREO_COUNT>
0

> <PUBCHEM_ISOTOPIC_ATOM_COUNT>
0

> <PUBCHEM_COMPONENT_COUNT>
1

> <PUBCHEM_CACTVS_TAUTO_COUNT>
-1

> <PUBCHEM_COORDINATE_TYPE>
1
5
255

> <PUBCHEM_BONDANNOTATIONS>
30  32  8
30  34  8
31  33  8
31  35  8
32  36  8
33  37  8
34  38  8
34  44  8
35  39  8
35  45  8
36  40  8
37  41  8
38  40  8
38  46  8
39  41  8
39  47  8
42  48  8
42  50  8
43  49  8
43  51  8
44  56  8
45  57  8
46  58  8
47  59  8
48  52  8
49  53  8
50  54  8
51  55  8
52  60  8
53  61  8
54  60  8
55  61  8
56  58  8
57  59  8
62  66  8
62  68  8
63  67  8
63  69  8
64  70  8
64  72  8
65  71  8
65  73  8
66  74  8
67  75  8
68  76  8
69  77  8
70  78  8
71  79  8
72  80  8
73  81  8
74  82  8
75  83  8
76  82  8
77  83  8
78  84  8
79  85  8
80  84  8
81  85  8

$$$$
