12151052
  -OEChem-04302102093D

 58 64  0     0  0  0  0  0  0999 V2000
   -0.0334    2.2082    0.0661 P   0  0  0  0  0  0  0  0  0  0  0  0
    1.0125    1.2362    0.8439 O   0  0  0  0  0  0  0  0  0  0  0  0
   -0.9881    1.2337   -0.8167 O   0  0  0  0  0  0  0  0  0  0  0  0
    0.8850    2.9336   -1.0528 O   0  0  0  0  0  0  0  0  0  0  0  0
   -0.7634    3.1606    0.9695 O   0  0  0  0  0  0  0  0  0  0  0  0
    0.7104   -0.9214   -0.2015 C   0  0  0  0  0  0  0  0  0  0  0  0
   -0.7226   -0.9218    0.2128 C   0  0  0  0  0  0  0  0  0  0  0  0
    1.2823   -1.9491   -1.0164 C   0  0  0  0  0  0  0  0  0  0  0  0
   -1.3031   -1.9473    1.0218 C   0  0  0  0  0  0  0  0  0  0  0  0
    1.5391    0.1471    0.1948 C   0  0  0  0  0  0  0  0  0  0  0  0
   -1.5450    0.1488   -0.1879 C   0  0  0  0  0  0  0  0  0  0  0  0
    2.9038    0.1632   -0.0651 C   0  0  0  0  0  0  0  0  0  0  0  0
   -2.9100    0.1761    0.0642 C   0  0  0  0  0  0  0  0  0  0  0  0
    2.6781   -1.9202   -1.2870 C   0  0  0  0  0  0  0  0  0  0  0  0
   -2.7004   -1.9116    1.2843 C   0  0  0  0  0  0  0  0  0  0  0  0
    3.4703   -0.8764   -0.7903 C   0  0  0  0  0  0  0  0  0  0  0  0
   -3.4850   -0.8623    0.7847 C   0  0  0  0  0  0  0  0  0  0  0  0
    0.5366   -3.0035   -1.5998 C   0  0  0  0  0  0  0  0  0  0  0  0
   -0.5648   -3.0059    1.6062 C   0  0  0  0  0  0  0  0  0  0  0  0
    3.7511    1.2488    0.3885 C   0  0  0  0  0  0  0  0  0  0  0  0
   -3.7448    1.2699   -0.3904 C   0  0  0  0  0  0  0  0  0  0  0  0
    3.2704   -2.9306   -2.0629 C   0  0  0  0  0  0  0  0  0  0  0  0
   -3.3012   -2.9206    2.0553 C   0  0  0  0  0  0  0  0  0  0  0  0
    1.1397   -3.9969   -2.3742 C   0  0  0  0  0  0  0  0  0  0  0  0
   -1.1768   -3.9978    2.3756 C   0  0  0  0  0  0  0  0  0  0  0  0
    2.5077   -3.9642   -2.5997 C   0  0  0  0  0  0  0  0  0  0  0  0
   -2.5459   -3.9586    2.5942 C   0  0  0  0  0  0  0  0  0  0  0  0
    3.9400    2.3670   -0.4212 C   0  0  0  0  0  0  0  0  0  0  0  0
   -3.9278    2.3883    0.4210 C   0  0  0  0  0  0  0  0  0  0  0  0
    4.3733    1.1711    1.6330 C   0  0  0  0  0  0  0  0  0  0  0  0
   -4.3624    1.2013   -1.6380 C   0  0  0  0  0  0  0  0  0  0  0  0
    4.7548    3.4117    0.0152 C   0  0  0  0  0  0  0  0  0  0  0  0
   -4.7312    3.4414   -0.0166 C   0  0  0  0  0  0  0  0  0  0  0  0
    5.1880    2.2159    2.0691 C   0  0  0  0  0  0  0  0  0  0  0  0
   -5.1656    2.2545   -2.0755 C   0  0  0  0  0  0  0  0  0  0  0  0
    5.3786    3.3363    1.2603 C   0  0  0  0  0  0  0  0  0  0  0  0
   -5.3500    3.3745   -1.2647 C   0  0  0  0  0  0  0  0  0  0  0  0
    4.5397   -0.8659   -1.0003 H   0  0  0  0  0  0  0  0  0  0  0  0
   -4.5554   -0.8465    0.9896 H   0  0  0  0  0  0  0  0  0  0  0  0
   -0.5412   -3.0653   -1.4678 H   0  0  0  0  0  0  0  0  0  0  0  0
    0.5133   -3.0723    1.4786 H   0  0  0  0  0  0  0  0  0  0  0  0
    4.3399   -2.9171   -2.2655 H   0  0  0  0  0  0  0  0  0  0  0  0
   -4.3717   -2.9025    2.2525 H   0  0  0  0  0  0  0  0  0  0  0  0
    0.5360   -4.7924   -2.8011 H   0  0  0  0  0  0  0  0  0  0  0  0
   -0.5793   -4.7971    2.8040 H   0  0  0  0  0  0  0  0  0  0  0  0
    2.9809   -4.7349   -3.2006 H   0  0  0  0  0  0  0  0  0  0  0  0
   -3.0258   -4.7281    3.1914 H   0  0  0  0  0  0  0  0  0  0  0  0
    3.4774    2.4347   -1.4024 H   0  0  0  0  0  0  0  0  0  0  0  0
   -3.4602    2.4530    1.4003 H   0  0  0  0  0  0  0  0  0  0  0  0
    4.2345    0.3050    2.2757 H   0  0  0  0  0  0  0  0  0  0  0  0
   -4.2283    0.3357   -2.2823 H   0  0  0  0  0  0  0  0  0  0  0  0
    1.3903    3.7357   -0.8011 H   0  0  0  0  0  0  0  0  0  0  0  0
    4.9065    4.2822   -0.6164 H   0  0  0  0  0  0  0  0  0  0  0  0
   -4.8761    4.3126    0.6155 H   0  0  0  0  0  0  0  0  0  0  0  0
    5.6739    2.1573    3.0387 H   0  0  0  0  0  0  0  0  0  0  0  0
   -5.6474    2.2027   -3.0475 H   0  0  0  0  0  0  0  0  0  0  0  0
    6.0137    4.1493    1.5997 H   0  0  0  0  0  0  0  0  0  0  0  0
   -5.9757    4.1943   -1.6052 H   0  0  0  0  0  0  0  0  0  0  0  0
  1  2  1  0  0  0  0
  1  3  1  0  0  0  0
  1  4  1  0  0  0  0
  1  5  2  0  0  0  0
  2 10  1  0  0  0  0
  3 11  1  0  0  0  0
  4 52  1  0  0  0  0
  6  7  1  0  0  0  0
  6  8  1  0  0  0  0
  6 10  2  0  0  0  0
  7  9  1  0  0  0  0
  7 11  2  0  0  0  0
  8 14  1  0  0  0  0
  8 18  2  0  0  0  0
  9 15  1  0  0  0  0
  9 19  2  0  0  0  0
 10 12  1  0  0  0  0
 11 13  1  0  0  0  0
 12 16  2  0  0  0  0
 12 20  1  0  0  0  0
 13 17  2  0  0  0  0
 13 21  1  0  0  0  0
 14 16  1  0  0  0  0
 14 22  2  0  0  0  0
 15 17  1  0  0  0  0
 15 23  2  0  0  0  0
 16 38  1  0  0  0  0
 17 39  1  0  0  0  0
 18 24  1  0  0  0  0
 18 40  1  0  0  0  0
 19 25  1  0  0  0  0
 19 41  1  0  0  0  0
 20 28  2  0  0  0  0
 20 30  1  0  0  0  0
 21 29  2  0  0  0  0
 21 31  1  0  0  0  0
 22 26  1  0  0  0  0
 22 42  1  0  0  0  0
 23 27  1  0  0  0  0
 23 43  1  0  0  0  0
 24 26  2  0  0  0  0
 24 44  1  0  0  0  0
 25 27  2  0  0  0  0
 25 45  1  0  0  0  0
 26 46  1  0  0  0  0
 27 47  1  0  0  0  0
 28 32  1  0  0  0  0
 28 48  1  0  0  0  0
 29 33  1  0  0  0  0
 29 49  1  0  0  0  0
 30 34  2  0  0  0  0
 30 50  1  0  0  0  0
 31 35  2  0  0  0  0
 31 51  1  0  0  0  0
 32 36  2  0  0  0  0
 32 53  1  0  0  0  0
 33 37  2  0  0  0  0
 33 54  1  0  0  0  0
 34 36  1  0  0  0  0
 34 55  1  0  0  0  0
 35 37  1  0  0  0  0
 35 56  1  0  0  0  0
 36 57  1  0  0  0  0
 37 58  1  0  0  0  0
M  END
> <PUBCHEM_COMPOUND_CID>
12151052

> <PUBCHEM_CONFORMER_RMSD>
0.8

> <PUBCHEM_CONFORMER_DIVERSEORDER>
1
2

> <PUBCHEM_MMFF94_PARTIAL_CHARGES>
48
1 1.51
10 0.08
11 0.08
16 -0.15
17 -0.15
18 -0.15
19 -0.15
2 -0.35
22 -0.15
23 -0.15
24 -0.15
25 -0.15
26 -0.15
27 -0.15
28 -0.15
29 -0.15
3 -0.35
30 -0.15
31 -0.15
32 -0.15
33 -0.15
34 -0.15
35 -0.15
36 -0.15
37 -0.15
38 0.15
39 0.15
4 -0.77
40 0.15
41 0.15
42 0.15
43 0.15
44 0.15
45 0.15
46 0.15
47 0.15
48 0.15
49 0.15
5 -0.7
50 0.15
51 0.15
52 0.5
53 0.15
54 0.15
55 0.15
56 0.15
57 0.15
58 0.15

> <PUBCHEM_EFFECTIVE_ROTOR_COUNT>
2.4

> <PUBCHEM_PHARMACOPHORE_FEATURES>
9
1 4 acceptor
1 5 acceptor
6 20 28 30 32 34 36 rings
6 21 29 31 33 35 37 rings
6 6 8 10 12 14 16 rings
6 7 9 11 13 15 17 rings
6 8 14 18 22 24 26 rings
6 9 15 19 23 25 27 rings
7 1 2 3 6 7 10 11 rings

> <PUBCHEM_HEAVY_ATOM_COUNT>
37

> <PUBCHEM_ATOM_DEF_STEREO_COUNT>
0

> <PUBCHEM_ATOM_UDEF_STEREO_COUNT>
0

> <PUBCHEM_BOND_DEF_STEREO_COUNT>
0

> <PUBCHEM_BOND_UDEF_STEREO_COUNT>
0

> <PUBCHEM_ISOTOPIC_ATOM_COUNT>
0

> <PUBCHEM_COMPONENT_COUNT>
1

> <PUBCHEM_CACTVS_TAUTO_COUNT>
1

> <PUBCHEM_CONFORMER_ID>
00B9690C00000001

> <PUBCHEM_MMFF94_ENERGY>
131.4867

> <PUBCHEM_FEATURE_SELFOVERLAP>
45.768

> <PUBCHEM_SHAPE_FINGERPRINT>
10258939 38 18118690048141853419
10290309 65 18127980909128764816
10305334 12 18041819784487422402
10675989 125 18047739404858053109
11297750 10 17976863940053984147
11763715 3 15338281108752219082
12107183 9 17823955915036120344
12422481 6 17977964688800256898
12440610 7 18334017189976139959
12597179 24 18410568487598866337
12788726 201 17534638297403001915
13140716 1 18116429246297982203
13540713 4 18338813259253457958
13726171 33 18118982501224407280
13911987 19 17915747685002235848
140371 6 18410586075516940868
14040221 304 18044342039009240501
14068700 675 17056672583143491630
14725015 67 17974279928861529372
14747281 78 17984449372047097157
14856354 85 17393048752704546434
14955137 171 17691709078935358224
15324884 4 18269854132422906030
15351339 4 17107077404032328251
15775530 1 18338814358770276039
16993438 75 18267292321716457167
17980427 26 18118942729747300263
19246450 95 17392998948053506896
19309040 13 17988653964947612053
20642791 13 18335983168685907975
20775438 99 18198039423302093807
21033648 29 18115030701951955293
21987440 362 16159014797025605493
22182313 1 18270135624584403246
22223350 30 18041006085521762579
23559900 14 18339931398702575014
25223398 141 17388570171040453507
27425 322 18267017255448235293
376196 1 18339913844622629227
4015057 19 17984153556027041231
4144715 1 18115027523833957752
469060 322 17624136396473938031
5080951 261 16699480060740689636
550186 7 18118411876089639426
5951187 136 18194108621391658355
6086070 43 17328570732077627637
6371380 46 18116989997228134666
70251023 43 17697873679601604175
7399639 24 18126022669559946339
9981440 41 18272359914837087146

> <PUBCHEM_SHAPE_MULTIPOLES>
741.81
10.54
6.47
2.42
0.14
2.37
0.01
-12.95
-0.03
-0.11
0.01
-0.01
2.89
6.85

> <PUBCHEM_SHAPE_SELFOVERLAP>
1693.562

> <PUBCHEM_SHAPE_VOLUME>
384

> <PUBCHEM_COORDINATE_TYPE>
2
5
10

$$$$
