154996157
  -OEChem-04302100462D

 80 86  0     0  0  0  0  0  0999 V2000
    8.8449    1.3281    0.0000 P   0  0  0  0  0  0  0  0  0  0  0  0
    9.4683    0.5463    0.0000 O   0  0  0  0  0  0  0  0  0  0  0  0
    7.8449    1.3281    0.0000 O   0  0  0  0  0  0  0  0  0  0  0  0
    9.6267    1.9516    0.0000 O   0  0  0  0  0  0  0  0  0  0  0  0
    8.8449    2.3281    0.0000 O   0  0  0  0  0  0  0  0  0  0  0  0
   14.3421   -2.7727    0.0000 O   0  0  0  0  0  0  0  0  0  0  0  0
    2.2112    3.0692    0.0000 O   0  0  0  0  0  0  0  0  0  0  0  0
    8.2510   -1.8999    0.0000 C   0  0  0  0  0  0  0  0  0  0  0  0
    6.6913   -1.1488    0.0000 C   0  0  0  0  0  0  0  0  0  0  0  0
    8.3449   -0.8625    0.0000 C   0  0  0  0  0  0  0  0  0  0  0  0
    7.4439   -0.4286    0.0000 C   0  0  0  0  0  0  0  0  0  0  0  0
    9.1071   -2.4933    0.0000 C   0  0  0  0  0  0  0  0  0  0  0  0
    5.6936   -0.8495    0.0000 C   0  0  0  0  0  0  0  0  0  0  0  0
    7.2628   -2.3480    0.0000 C   0  0  0  0  0  0  0  0  0  0  0  0
    6.3956   -2.1927    0.0000 C   0  0  0  0  0  0  0  0  0  0  0  0
    9.0344   -3.5759    0.0000 C   0  0  0  0  0  0  0  0  0  0  0  0
    4.6340   -1.0828    0.0000 C   0  0  0  0  0  0  0  0  0  0  0  0
    7.1651   -3.4285    0.0000 C   0  0  0  0  0  0  0  0  0  0  0  0
    5.2472   -2.6034    0.0000 C   0  0  0  0  0  0  0  0  0  0  0  0
    8.0568   -4.0466    0.0000 C   0  0  0  0  0  0  0  0  0  0  0  0
    4.4087   -1.9666    0.0000 C   0  0  0  0  0  0  0  0  0  0  0  0
    9.2458   -0.4286    0.0000 C   0  0  0  0  0  0  0  0  0  0  0  0
    7.2214    0.5463    0.0000 C   0  0  0  0  0  0  0  0  0  0  0  0
   10.1154   -1.0021    0.0000 C   0  0  0  0  0  0  0  0  0  0  0  0
    6.2309    0.8686    0.0000 C   0  0  0  0  0  0  0  0  0  0  0  0
   10.0456   -2.0414    0.0000 C   0  0  0  0  0  0  0  0  0  0  0  0
    5.4619    0.1660    0.0000 C   0  0  0  0  0  0  0  0  0  0  0  0
   11.0113   -0.5578    0.0000 C   0  0  0  0  0  0  0  0  0  0  0  0
    6.0196    1.8460    0.0000 C   0  0  0  0  0  0  0  0  0  0  0  0
   11.8440   -1.1115    0.0000 C   0  0  0  0  0  0  0  0  0  0  0  0
    5.0675    2.1518    0.0000 C   0  0  0  0  0  0  0  0  0  0  0  0
   11.7808   -2.1095    0.0000 C   0  0  0  0  0  0  0  0  0  0  0  0
    4.8563    3.1293    0.0000 C   0  0  0  0  0  0  0  0  0  0  0  0
   12.7399   -0.6673    0.0000 C   0  0  0  0  0  0  0  0  0  0  0  0
    4.3267    1.4802    0.0000 C   0  0  0  0  0  0  0  0  0  0  0  0
   12.6135   -2.6633    0.0000 C   0  0  0  0  0  0  0  0  0  0  0  0
    3.9042    3.4351    0.0000 C   0  0  0  0  0  0  0  0  0  0  0  0
   13.5726   -1.2210    0.0000 C   0  0  0  0  0  0  0  0  0  0  0  0
    3.3746    1.7860    0.0000 C   0  0  0  0  0  0  0  0  0  0  0  0
   13.5094   -2.2190    0.0000 C   0  0  0  0  0  0  0  0  0  0  0  0
    3.1633    2.7634    0.0000 C   0  0  0  0  0  0  0  0  0  0  0  0
   15.2380   -2.3284    0.0000 C   0  0  0  0  0  0  0  0  0  0  0  0
    2.0000    4.0466    0.0000 C   0  0  0  0  0  0  0  0  0  0  0  0
    7.1072   -1.7478    0.0000 H   0  0  0  0  0  0  0  0  0  0  0  0
    6.6449   -2.3986    0.0000 H   0  0  0  0  0  0  0  0  0  0  0  0
    6.4802   -2.8069    0.0000 H   0  0  0  0  0  0  0  0  0  0  0  0
    7.0141   -2.2358    0.0000 H   0  0  0  0  0  0  0  0  0  0  0  0
    9.2038   -4.1723    0.0000 H   0  0  0  0  0  0  0  0  0  0  0  0
    9.6510   -3.5110    0.0000 H   0  0  0  0  0  0  0  0  0  0  0  0
    4.5961   -0.4639    0.0000 H   0  0  0  0  0  0  0  0  0  0  0  0
    4.0168   -1.0244    0.0000 H   0  0  0  0  0  0  0  0  0  0  0  0
    6.5663   -3.2678    0.0000 H   0  0  0  0  0  0  0  0  0  0  0  0
    6.9043   -3.9910    0.0000 H   0  0  0  0  0  0  0  0  0  0  0  0
    4.7846   -3.0162    0.0000 H   0  0  0  0  0  0  0  0  0  0  0  0
    5.5639   -3.1364    0.0000 H   0  0  0  0  0  0  0  0  0  0  0  0
    7.6216   -4.4882    0.0000 H   0  0  0  0  0  0  0  0  0  0  0  0
    8.4174   -4.5510    0.0000 H   0  0  0  0  0  0  0  0  0  0  0  0
    3.8336   -1.7350    0.0000 H   0  0  0  0  0  0  0  0  0  0  0  0
    4.1026   -2.5058    0.0000 H   0  0  0  0  0  0  0  0  0  0  0  0
   10.5592   -2.3886    0.0000 H   0  0  0  0  0  0  0  0  0  0  0  0
    4.8701    0.3511    0.0000 H   0  0  0  0  0  0  0  0  0  0  0  0
   11.4390   -0.1090    0.0000 H   0  0  0  0  0  0  0  0  0  0  0  0
   10.6436   -0.0586    0.0000 H   0  0  0  0  0  0  0  0  0  0  0  0
    6.6392    1.8698    0.0000 H   0  0  0  0  0  0  0  0  0  0  0  0
    6.1038    2.4603    0.0000 H   0  0  0  0  0  0  0  0  0  0  0  0
   10.2038    1.7251    0.0000 H   0  0  0  0  0  0  0  0  0  0  0  0
   11.2254   -2.3850    0.0000 H   0  0  0  0  0  0  0  0  0  0  0  0
    5.3156    3.5457    0.0000 H   0  0  0  0  0  0  0  0  0  0  0  0
   12.7791   -0.0485    0.0000 H   0  0  0  0  0  0  0  0  0  0  0  0
    4.4576    0.8742    0.0000 H   0  0  0  0  0  0  0  0  0  0  0  0
   12.5743   -3.2820    0.0000 H   0  0  0  0  0  0  0  0  0  0  0  0
    3.7732    4.0411    0.0000 H   0  0  0  0  0  0  0  0  0  0  0  0
   14.1280   -0.9455    0.0000 H   0  0  0  0  0  0  0  0  0  0  0  0
    2.9152    1.3696    0.0000 H   0  0  0  0  0  0  0  0  0  0  0  0
   15.5134   -2.8839    0.0000 H   0  0  0  0  0  0  0  0  0  0  0  0
   15.7934   -2.0530    0.0000 H   0  0  0  0  0  0  0  0  0  0  0  0
   14.9625   -1.7730    0.0000 H   0  0  0  0  0  0  0  0  0  0  0  0
    2.6060    4.1776    0.0000 H   0  0  0  0  0  0  0  0  0  0  0  0
    1.8690    4.6526    0.0000 H   0  0  0  0  0  0  0  0  0  0  0  0
    1.3940    3.9157    0.0000 H   0  0  0  0  0  0  0  0  0  0  0  0
  1  2  1  0  0  0  0
  1  3  1  0  0  0  0
  1  4  1  0  0  0  0
  1  5  2  0  0  0  0
  2 22  1  0  0  0  0
  3 23  1  0  0  0  0
  4 66  1  0  0  0  0
  6 40  1  0  0  0  0
  6 42  1  0  0  0  0
  7 41  1  0  0  0  0
  7 43  1  0  0  0  0
  8 10  2  0  0  0  0
  8 12  1  0  0  0  0
  8 14  1  0  0  0  0
  9 11  2  0  0  0  0
  9 13  1  0  0  0  0
  9 15  1  0  0  0  0
 10 11  1  0  0  0  0
 10 22  1  0  0  0  0
 11 23  1  0  0  0  0
 12 16  1  0  0  0  0
 12 26  2  0  0  0  0
 13 17  1  0  0  0  0
 13 27  2  0  0  0  0
 14 18  1  0  0  0  0
 14 44  1  0  0  0  0
 14 45  1  0  0  0  0
 15 19  1  0  0  0  0
 15 46  1  0  0  0  0
 15 47  1  0  0  0  0
 16 20  1  0  0  0  0
 16 48  1  0  0  0  0
 16 49  1  0  0  0  0
 17 21  1  0  0  0  0
 17 50  1  0  0  0  0
 17 51  1  0  0  0  0
 18 20  1  0  0  0  0
 18 52  1  0  0  0  0
 18 53  1  0  0  0  0
 19 21  1  0  0  0  0
 19 54  1  0  0  0  0
 19 55  1  0  0  0  0
 20 56  1  0  0  0  0
 20 57  1  0  0  0  0
 21 58  1  0  0  0  0
 21 59  1  0  0  0  0
 22 24  2  0  0  0  0
 23 25  2  0  0  0  0
 24 26  1  0  0  0  0
 24 28  1  0  0  0  0
 25 27  1  0  0  0  0
 25 29  1  0  0  0  0
 26 60  1  0  0  0  0
 27 61  1  0  0  0  0
 28 30  1  0  0  0  0
 28 62  1  0  0  0  0
 28 63  1  0  0  0  0
 29 31  1  0  0  0  0
 29 64  1  0  0  0  0
 29 65  1  0  0  0  0
 30 32  2  0  0  0  0
 30 34  1  0  0  0  0
 31 33  2  0  0  0  0
 31 35  1  0  0  0  0
 32 36  1  0  0  0  0
 32 67  1  0  0  0  0
 33 37  1  0  0  0  0
 33 68  1  0  0  0  0
 34 38  2  0  0  0  0
 34 69  1  0  0  0  0
 35 39  2  0  0  0  0
 35 70  1  0  0  0  0
 36 40  2  0  0  0  0
 36 71  1  0  0  0  0
 37 41  2  0  0  0  0
 37 72  1  0  0  0  0
 38 40  1  0  0  0  0
 38 73  1  0  0  0  0
 39 41  1  0  0  0  0
 39 74  1  0  0  0  0
 42 75  1  0  0  0  0
 42 76  1  0  0  0  0
 42 77  1  0  0  0  0
 43 78  1  0  0  0  0
 43 79  1  0  0  0  0
 43 80  1  0  0  0  0
M  END
> <PUBCHEM_COMPOUND_CID>
154996157

> <PUBCHEM_COMPOUND_CANONICALIZED>
1

> <PUBCHEM_CACTVS_COMPLEXITY>
887

> <PUBCHEM_CACTVS_HBOND_ACCEPTOR>
6

> <PUBCHEM_CACTVS_HBOND_DONOR>
1

> <PUBCHEM_CACTVS_ROTATABLE_BOND>
6

> <PUBCHEM_CACTVS_SUBSKEYS>
AAADcfB8OAIAAAAAAAAAAAAAAAAAAAAAAAAwYMGDBIAAAADBVAAAGgAACCAADASAmAIyBoAABRCAQiBCAIACCAAgIAAIiAAGCIgMJiKEMRqAMCAkwBEIqAfAwPAO4AADAAAYAADAAAYAADAAAAAAAAAAAA==

> <PUBCHEM_IUPAC_OPENEYE_NAME>
13-hydroxy-10,16-bis[(4-methoxyphenyl)methyl]-12,14-dioxa-13lambda5-phosphapentacyclo[13.8.0.02,11.03,8.018,23]tricosa-1(23),2,8,10,15,17-hexaene 13-oxide

> <PUBCHEM_IUPAC_CAS_NAME>
13-hydroxy-10,16-bis[(4-methoxyphenyl)methyl]-12,14-dioxa-13lambda5-phosphapentacyclo[13.8.0.02,11.03,8.018,23]tricosa-1(23),2,8,10,15,17-hexaene 13-oxide

> <PUBCHEM_IUPAC_NAME_MARKUP>
13-hydroxy-10,16-bis[(4-methoxyphenyl)methyl]-12,14-dioxa-13&lambda;<SUP>5</SUP>-phosphapentacyclo[13.8.0.0<SUP>2,11</SUP>.0<SUP>3,8</SUP>.0<SUP>18,23</SUP>]tricosa-1(23),2,8,10,15,17-hexaene 13-oxide

> <PUBCHEM_IUPAC_NAME>
13-hydroxy-10,16-bis[(4-methoxyphenyl)methyl]-12,14-dioxa-13lambda5-phosphapentacyclo[13.8.0.02,11.03,8.018,23]tricosa-1(23),2,8,10,15,17-hexaene 13-oxide

> <PUBCHEM_IUPAC_SYSTEMATIC_NAME>
10,16-bis[(4-methoxyphenyl)methyl]-13-oxidanyl-12,14-dioxa-13lambda5-phosphapentacyclo[13.8.0.02,11.03,8.018,23]tricosa-1(23),2,8,10,15,17-hexaene 13-oxide

> <PUBCHEM_IUPAC_TRADITIONAL_NAME>
13-hydroxy-10,16-bis(p-anisyl)-12,14-dioxa-13lambda5-phosphapentacyclo[13.8.0.02,11.03,8.018,23]tricosa-1(23),2,8,10,15,17-hexaene 13-oxide

> <PUBCHEM_IUPAC_INCHI>
InChI=1S/C36H37O6P/c1-39-29-15-11-23(12-16-29)19-27-21-25-7-3-5-9-31(25)33-34-32-10-6-4-8-26(32)22-28(20-24-13-17-30(40-2)18-14-24)36(34)42-43(37,38)41-35(27)33/h11-18,21-22H,3-10,19-20H2,1-2H3,(H,37,38)

> <PUBCHEM_IUPAC_INCHIKEY>
KKSGOBZFOLDKSM-UHFFFAOYSA-N

> <PUBCHEM_XLOGP3_AA>
8.9

> <PUBCHEM_EXACT_MASS>
596.232776

> <PUBCHEM_MOLECULAR_FORMULA>
C36H37O6P

> <PUBCHEM_MOLECULAR_WEIGHT>
596.6

> <PUBCHEM_OPENEYE_CAN_SMILES>
COC1=CC=C(C=C1)CC2=C3C(=C4CCCCC4=C2)C5=C6CCCCC6=CC(=C5OP(=O)(O3)O)CC7=CC=C(C=C7)OC

> <PUBCHEM_OPENEYE_ISO_SMILES>
COC1=CC=C(C=C1)CC2=C3C(=C4CCCCC4=C2)C5=C6CCCCC6=CC(=C5OP(=O)(O3)O)CC7=CC=C(C=C7)OC

> <PUBCHEM_CACTVS_TPSA>
74.2

> <PUBCHEM_MONOISOTOPIC_WEIGHT>
596.232776

> <PUBCHEM_TOTAL_CHARGE>
0

> <PUBCHEM_HEAVY_ATOM_COUNT>
43

> <PUBCHEM_ATOM_DEF_STEREO_COUNT>
0

> <PUBCHEM_ATOM_UDEF_STEREO_COUNT>
0

> <PUBCHEM_BOND_DEF_STEREO_COUNT>
0

> <PUBCHEM_BOND_UDEF_STEREO_COUNT>
0

> <PUBCHEM_ISOTOPIC_ATOM_COUNT>
0

> <PUBCHEM_COMPONENT_COUNT>
1

> <PUBCHEM_CACTVS_TAUTO_COUNT>
-1

> <PUBCHEM_COORDINATE_TYPE>
1
5
255

> <PUBCHEM_BONDANNOTATIONS>
10  22  8
11  23  8
12  26  8
13  27  8
22  24  8
23  25  8
24  26  8
25  27  8
30  32  8
30  34  8
31  33  8
31  35  8
32  36  8
33  37  8
34  38  8
35  39  8
36  40  8
37  41  8
38  40  8
39  41  8
8  10  8
8  12  8
9  11  8
9  13  8

$$$$
