154996188
  -OEChem-04302101242D

114124  0     0  0  0  0  0  0999 V2000
   10.0082   -0.2282    0.0000 P   0  0  0  0  0  0  0  0  0  0  0  0
   10.6317   -1.0100    0.0000 O   0  0  0  0  0  0  0  0  0  0  0  0
    9.0082   -0.2282    0.0000 O   0  0  0  0  0  0  0  0  0  0  0  0
   10.7900    0.3953    0.0000 O   0  0  0  0  0  0  0  0  0  0  0  0
   10.0082    0.7718    0.0000 O   0  0  0  0  0  0  0  0  0  0  0  0
   13.3865    3.3202    0.0000 O   0  0  0  0  0  0  0  0  0  0  0  0
   10.6761    4.6255    0.0000 O   0  0  0  0  0  0  0  0  0  0  0  0
   17.2340   -4.4384    0.0000 O   0  0  0  0  0  0  0  0  0  0  0  0
    2.2112    2.7961    0.0000 O   0  0  0  0  0  0  0  0  0  0  0  0
    9.5082   -2.4188    0.0000 C   0  0  0  0  0  0  0  0  0  0  0  0
    8.6072   -1.9849    0.0000 C   0  0  0  0  0  0  0  0  0  0  0  0
   10.4092   -1.9849    0.0000 C   0  0  0  0  0  0  0  0  0  0  0  0
    8.3847   -1.0100    0.0000 C   0  0  0  0  0  0  0  0  0  0  0  0
    9.4144   -3.4562    0.0000 C   0  0  0  0  0  0  0  0  0  0  0  0
    7.8547   -2.7051    0.0000 C   0  0  0  0  0  0  0  0  0  0  0  0
   11.2787   -2.5584    0.0000 C   0  0  0  0  0  0  0  0  0  0  0  0
    7.3942   -0.6877    0.0000 C   0  0  0  0  0  0  0  0  0  0  0  0
   10.2704   -4.0496    0.0000 C   0  0  0  0  0  0  0  0  0  0  0  0
    6.8570   -2.4058    0.0000 C   0  0  0  0  0  0  0  0  0  0  0  0
   11.2089   -3.5976    0.0000 C   0  0  0  0  0  0  0  0  0  0  0  0
    6.6252   -1.3902    0.0000 C   0  0  0  0  0  0  0  0  0  0  0  0
   12.1746   -2.1141    0.0000 C   0  0  0  0  0  0  0  0  0  0  0  0
    7.1830    0.2898    0.0000 C   0  0  0  0  0  0  0  0  0  0  0  0
    8.4262   -3.9042    0.0000 C   0  0  0  0  0  0  0  0  0  0  0  0
    7.5589   -3.7490    0.0000 C   0  0  0  0  0  0  0  0  0  0  0  0
   10.1977   -5.1321    0.0000 C   0  0  0  0  0  0  0  0  0  0  0  0
    5.7974   -2.6390    0.0000 C   0  0  0  0  0  0  0  0  0  0  0  0
   12.2378   -1.1161    0.0000 C   0  0  0  0  0  0  0  0  0  0  0  0
    7.9238    0.9614    0.0000 C   0  0  0  0  0  0  0  0  0  0  0  0
   13.0073   -2.6678    0.0000 C   0  0  0  0  0  0  0  0  0  0  0  0
    6.2309    0.5956    0.0000 C   0  0  0  0  0  0  0  0  0  0  0  0
    8.3284   -4.9848    0.0000 C   0  0  0  0  0  0  0  0  0  0  0  0
    6.4105   -4.1596    0.0000 C   0  0  0  0  0  0  0  0  0  0  0  0
    9.2202   -5.6029    0.0000 C   0  0  0  0  0  0  0  0  0  0  0  0
    5.5720   -3.5229    0.0000 C   0  0  0  0  0  0  0  0  0  0  0  0
   13.1337   -0.6718    0.0000 C   0  0  0  0  0  0  0  0  0  0  0  0
    7.7126    1.9389    0.0000 C   0  0  0  0  0  0  0  0  0  0  0  0
   13.9032   -2.2235    0.0000 C   0  0  0  0  0  0  0  0  0  0  0  0
    6.0196    1.5730    0.0000 C   0  0  0  0  0  0  0  0  0  0  0  0
   13.9664   -1.2255    0.0000 C   0  0  0  0  0  0  0  0  0  0  0  0
    6.7605    2.2446    0.0000 C   0  0  0  0  0  0  0  0  0  0  0  0
   13.1969    0.3262    0.0000 C   0  0  0  0  0  0  0  0  0  0  0  0
    8.4535    2.6105    0.0000 C   0  0  0  0  0  0  0  0  0  0  0  0
   14.7359   -2.7773    0.0000 C   0  0  0  0  0  0  0  0  0  0  0  0
    5.0675    1.8788    0.0000 C   0  0  0  0  0  0  0  0  0  0  0  0
   12.3642    0.8799    0.0000 C   0  0  0  0  0  0  0  0  0  0  0  0
    9.4056    2.3047    0.0000 C   0  0  0  0  0  0  0  0  0  0  0  0
   14.0928    0.7705    0.0000 C   0  0  0  0  0  0  0  0  0  0  0  0
    8.2422    3.5880    0.0000 C   0  0  0  0  0  0  0  0  0  0  0  0
   14.6727   -3.7753    0.0000 C   0  0  0  0  0  0  0  0  0  0  0  0
    4.8563    2.8562    0.0000 C   0  0  0  0  0  0  0  0  0  0  0  0
   15.6318   -2.3330    0.0000 C   0  0  0  0  0  0  0  0  0  0  0  0
    4.3267    1.2071    0.0000 C   0  0  0  0  0  0  0  0  0  0  0  0
   12.4274    1.8779    0.0000 C   0  0  0  0  0  0  0  0  0  0  0  0
   10.1464    2.9764    0.0000 C   0  0  0  0  0  0  0  0  0  0  0  0
   14.1560    1.7685    0.0000 C   0  0  0  0  0  0  0  0  0  0  0  0
    8.9831    4.2596    0.0000 C   0  0  0  0  0  0  0  0  0  0  0  0
   15.5054   -4.3290    0.0000 C   0  0  0  0  0  0  0  0  0  0  0  0
    3.9042    3.1620    0.0000 C   0  0  0  0  0  0  0  0  0  0  0  0
   16.4645   -2.8867    0.0000 C   0  0  0  0  0  0  0  0  0  0  0  0
    3.3746    1.5129    0.0000 C   0  0  0  0  0  0  0  0  0  0  0  0
   13.3233    2.3222    0.0000 C   0  0  0  0  0  0  0  0  0  0  0  0
    9.9352    3.9538    0.0000 C   0  0  0  0  0  0  0  0  0  0  0  0
   16.4013   -3.8847    0.0000 C   0  0  0  0  0  0  0  0  0  0  0  0
    3.1633    2.4904    0.0000 C   0  0  0  0  0  0  0  0  0  0  0  0
   14.2824    3.7645    0.0000 C   0  0  0  0  0  0  0  0  0  0  0  0
   10.4648    5.6029    0.0000 C   0  0  0  0  0  0  0  0  0  0  0  0
   18.1299   -3.9942    0.0000 C   0  0  0  0  0  0  0  0  0  0  0  0
    2.0000    3.7736    0.0000 C   0  0  0  0  0  0  0  0  0  0  0  0
   11.7225   -3.9449    0.0000 H   0  0  0  0  0  0  0  0  0  0  0  0
    6.0334   -1.2052    0.0000 H   0  0  0  0  0  0  0  0  0  0  0  0
    7.9207   -3.5452    0.0000 H   0  0  0  0  0  0  0  0  0  0  0  0
    8.0118   -4.1724    0.0000 H   0  0  0  0  0  0  0  0  0  0  0  0
   10.7113   -5.4794    0.0000 H   0  0  0  0  0  0  0  0  0  0  0  0
    5.3662   -2.1935    0.0000 H   0  0  0  0  0  0  0  0  0  0  0  0
   11.7216   -0.7728    0.0000 H   0  0  0  0  0  0  0  0  0  0  0  0
    8.5141    0.7718    0.0000 H   0  0  0  0  0  0  0  0  0  0  0  0
   12.9682   -3.2866    0.0000 H   0  0  0  0  0  0  0  0  0  0  0  0
    5.7715    0.1791    0.0000 H   0  0  0  0  0  0  0  0  0  0  0  0
    7.7668   -5.2473    0.0000 H   0  0  0  0  0  0  0  0  0  0  0  0
    6.3160   -4.7724    0.0000 H   0  0  0  0  0  0  0  0  0  0  0  0
    9.1714   -6.2210    0.0000 H   0  0  0  0  0  0  0  0  0  0  0  0
    4.9866   -3.7272    0.0000 H   0  0  0  0  0  0  0  0  0  0  0  0
   14.5219   -0.9501    0.0000 H   0  0  0  0  0  0  0  0  0  0  0  0
    6.6295    2.8507    0.0000 H   0  0  0  0  0  0  0  0  0  0  0  0
   10.6976    1.0084    0.0000 H   0  0  0  0  0  0  0  0  0  0  0  0
   11.8088    0.6045    0.0000 H   0  0  0  0  0  0  0  0  0  0  0  0
    9.5365    1.6987    0.0000 H   0  0  0  0  0  0  0  0  0  0  0  0
   14.6091    0.4272    0.0000 H   0  0  0  0  0  0  0  0  0  0  0  0
    7.6519    3.7775    0.0000 H   0  0  0  0  0  0  0  0  0  0  0  0
   14.1173   -4.0507    0.0000 H   0  0  0  0  0  0  0  0  0  0  0  0
    5.3156    3.2726    0.0000 H   0  0  0  0  0  0  0  0  0  0  0  0
   15.6710   -1.7142    0.0000 H   0  0  0  0  0  0  0  0  0  0  0  0
    4.4576    0.6011    0.0000 H   0  0  0  0  0  0  0  0  0  0  0  0
   11.9111    2.2212    0.0000 H   0  0  0  0  0  0  0  0  0  0  0  0
   10.7367    2.7868    0.0000 H   0  0  0  0  0  0  0  0  0  0  0  0
   14.7115    2.0439    0.0000 H   0  0  0  0  0  0  0  0  0  0  0  0
    8.8521    4.8656    0.0000 H   0  0  0  0  0  0  0  0  0  0  0  0
   15.4662   -4.9478    0.0000 H   0  0  0  0  0  0  0  0  0  0  0  0
    3.7732    3.7680    0.0000 H   0  0  0  0  0  0  0  0  0  0  0  0
   17.0200   -2.6113    0.0000 H   0  0  0  0  0  0  0  0  0  0  0  0
    2.9152    1.0965    0.0000 H   0  0  0  0  0  0  0  0  0  0  0  0
   14.5578    3.2090    0.0000 H   0  0  0  0  0  0  0  0  0  0  0  0
   14.8378    4.0399    0.0000 H   0  0  0  0  0  0  0  0  0  0  0  0
   14.0069    4.3199    0.0000 H   0  0  0  0  0  0  0  0  0  0  0  0
   11.0709    5.7339    0.0000 H   0  0  0  0  0  0  0  0  0  0  0  0
   10.3339    6.2089    0.0000 H   0  0  0  0  0  0  0  0  0  0  0  0
    9.8588    5.4719    0.0000 H   0  0  0  0  0  0  0  0  0  0  0  0
   18.4054   -4.5496    0.0000 H   0  0  0  0  0  0  0  0  0  0  0  0
   18.6854   -3.7187    0.0000 H   0  0  0  0  0  0  0  0  0  0  0  0
   17.8545   -3.4387    0.0000 H   0  0  0  0  0  0  0  0  0  0  0  0
    2.6060    3.9045    0.0000 H   0  0  0  0  0  0  0  0  0  0  0  0
    1.8690    4.3796    0.0000 H   0  0  0  0  0  0  0  0  0  0  0  0
    1.3940    3.6426    0.0000 H   0  0  0  0  0  0  0  0  0  0  0  0
  1  2  1  0  0  0  0
  1  3  1  0  0  0  0
  1  4  1  0  0  0  0
  1  5  2  0  0  0  0
  2 12  1  0  0  0  0
  3 13  1  0  0  0  0
  4 86  1  0  0  0  0
  6 62  1  0  0  0  0
  6 66  1  0  0  0  0
  7 63  1  0  0  0  0
  7 67  1  0  0  0  0
  8 64  1  0  0  0  0
  8 68  1  0  0  0  0
  9 65  1  0  0  0  0
  9 69  1  0  0  0  0
 10 11  1  0  0  0  0
 10 12  2  0  0  0  0
 10 14  1  0  0  0  0
 11 13  2  0  0  0  0
 11 15  1  0  0  0  0
 12 16  1  0  0  0  0
 13 17  1  0  0  0  0
 14 18  1  0  0  0  0
 14 24  2  0  0  0  0
 15 19  1  0  0  0  0
 15 25  2  0  0  0  0
 16 20  2  0  0  0  0
 16 22  1  0  0  0  0
 17 21  2  0  0  0  0
 17 23  1  0  0  0  0
 18 20  1  0  0  0  0
 18 26  2  0  0  0  0
 19 21  1  0  0  0  0
 19 27  2  0  0  0  0
 20 70  1  0  0  0  0
 21 71  1  0  0  0  0
 22 28  2  0  0  0  0
 22 30  1  0  0  0  0
 23 29  2  0  0  0  0
 23 31  1  0  0  0  0
 24 32  1  0  0  0  0
 24 72  1  0  0  0  0
 25 33  1  0  0  0  0
 25 73  1  0  0  0  0
 26 34  1  0  0  0  0
 26 74  1  0  0  0  0
 27 35  1  0  0  0  0
 27 75  1  0  0  0  0
 28 36  1  0  0  0  0
 28 76  1  0  0  0  0
 29 37  1  0  0  0  0
 29 77  1  0  0  0  0
 30 38  2  0  0  0  0
 30 78  1  0  0  0  0
 31 39  2  0  0  0  0
 31 79  1  0  0  0  0
 32 34  2  0  0  0  0
 32 80  1  0  0  0  0
 33 35  2  0  0  0  0
 33 81  1  0  0  0  0
 34 82  1  0  0  0  0
 35 83  1  0  0  0  0
 36 40  2  0  0  0  0
 36 42  1  0  0  0  0
 37 41  2  0  0  0  0
 37 43  1  0  0  0  0
 38 40  1  0  0  0  0
 38 44  1  0  0  0  0
 39 41  1  0  0  0  0
 39 45  1  0  0  0  0
 40 84  1  0  0  0  0
 41 85  1  0  0  0  0
 42 46  2  0  0  0  0
 42 48  1  0  0  0  0
 43 47  2  0  0  0  0
 43 49  1  0  0  0  0
 44 50  2  0  0  0  0
 44 52  1  0  0  0  0
 45 51  2  0  0  0  0
 45 53  1  0  0  0  0
 46 54  1  0  0  0  0
 46 87  1  0  0  0  0
 47 55  1  0  0  0  0
 47 88  1  0  0  0  0
 48 56  2  0  0  0  0
 48 89  1  0  0  0  0
 49 57  2  0  0  0  0
 49 90  1  0  0  0  0
 50 58  1  0  0  0  0
 50 91  1  0  0  0  0
 51 59  1  0  0  0  0
 51 92  1  0  0  0  0
 52 60  2  0  0  0  0
 52 93  1  0  0  0  0
 53 61  2  0  0  0  0
 53 94  1  0  0  0  0
 54 62  2  0  0  0  0
 54 95  1  0  0  0  0
 55 63  2  0  0  0  0
 55 96  1  0  0  0  0
 56 62  1  0  0  0  0
 56 97  1  0  0  0  0
 57 63  1  0  0  0  0
 57 98  1  0  0  0  0
 58 64  2  0  0  0  0
 58 99  1  0  0  0  0
 59 65  2  0  0  0  0
 59100  1  0  0  0  0
 60 64  1  0  0  0  0
 60101  1  0  0  0  0
 61 65  1  0  0  0  0
 61102  1  0  0  0  0
 66103  1  0  0  0  0
 66104  1  0  0  0  0
 66105  1  0  0  0  0
 67106  1  0  0  0  0
 67107  1  0  0  0  0
 67108  1  0  0  0  0
 68109  1  0  0  0  0
 68110  1  0  0  0  0
 68111  1  0  0  0  0
 69112  1  0  0  0  0
 69113  1  0  0  0  0
 69114  1  0  0  0  0
M  END
> <PUBCHEM_COMPOUND_CID>
154996188

> <PUBCHEM_COMPOUND_CANONICALIZED>
1

> <PUBCHEM_CACTVS_COMPLEXITY>
1480

> <PUBCHEM_CACTVS_HBOND_ACCEPTOR>
8

> <PUBCHEM_CACTVS_HBOND_DONOR>
1

> <PUBCHEM_CACTVS_ROTATABLE_BOND>
10

> <PUBCHEM_CACTVS_SUBSKEYS>
AAADcfB8PAIAAAAAAAAAAAAAAAAAAAAAAAAwYMGDBIAAAADBVAAAGgAACCAADASAmAIyBsAABRCAQiBCAIACCAAgIAAIiAAGCIgMJiKEMRqAMCAkwBEIqAfAwPAO4AADAAAYAADAAAYAADAAAAAAAAAAAA==

> <PUBCHEM_IUPAC_OPENEYE_NAME>
10,16-bis[3,5-bis(4-methoxyphenyl)phenyl]-13-hydroxy-12,14-dioxa-13lambda5-phosphapentacyclo[13.8.0.02,11.03,8.018,23]tricosa-1(15),2(11),3,5,7,9,16,18,20,22-decaene 13-oxide

> <PUBCHEM_IUPAC_CAS_NAME>
10,16-bis[3,5-bis(4-methoxyphenyl)phenyl]-13-hydroxy-12,14-dioxa-13lambda5-phosphapentacyclo[13.8.0.02,11.03,8.018,23]tricosa-1(15),2(11),3,5,7,9,16,18,20,22-decaene 13-oxide

> <PUBCHEM_IUPAC_NAME_MARKUP>
10,16-bis[3,5-bis(4-methoxyphenyl)phenyl]-13-hydroxy-12,14-dioxa-13&lambda;<SUP>5</SUP>-phosphapentacyclo[13.8.0.0<SUP>2,11</SUP>.0<SUP>3,8</SUP>.0<SUP>18,23</SUP>]tricosa-1(15),2(11),3,5,7,9,16,18,20,22-decaene 13-oxide

> <PUBCHEM_IUPAC_NAME>
10,16-bis[3,5-bis(4-methoxyphenyl)phenyl]-13-hydroxy-12,14-dioxa-13lambda5-phosphapentacyclo[13.8.0.02,11.03,8.018,23]tricosa-1(15),2(11),3,5,7,9,16,18,20,22-decaene 13-oxide

> <PUBCHEM_IUPAC_SYSTEMATIC_NAME>
10,16-bis[3,5-bis(4-methoxyphenyl)phenyl]-13-oxidanyl-12,14-dioxa-13lambda5-phosphapentacyclo[13.8.0.02,11.03,8.018,23]tricosa-1(15),2(11),3,5,7,9,16,18,20,22-decaene 13-oxide

> <PUBCHEM_IUPAC_TRADITIONAL_NAME>
10,16-bis[3,5-bis(4-methoxyphenyl)phenyl]-13-hydroxy-12,14-dioxa-13lambda5-phosphapentacyclo[13.8.0.02,11.03,8.018,23]tricosa-1(15),2(11),3,5,7,9,16,18,20,22-decaene 13-oxide

> <PUBCHEM_IUPAC_INCHI>
InChI=1S/C60H45O8P/c1-63-49-21-13-37(14-22-49)43-29-44(38-15-23-50(64-2)24-16-38)32-47(31-43)55-35-41-9-5-7-11-53(41)57-58-54-12-8-6-10-42(54)36-56(60(58)68-69(61,62)67-59(55)57)48-33-45(39-17-25-51(65-3)26-18-39)30-46(34-48)40-19-27-52(66-4)28-20-40/h5-36H,1-4H3,(H,61,62)

> <PUBCHEM_IUPAC_INCHIKEY>
VMOSTOYZXMACGF-UHFFFAOYSA-N

> <PUBCHEM_XLOGP3_AA>
14.5

> <PUBCHEM_EXACT_MASS>
924.285205

> <PUBCHEM_MOLECULAR_FORMULA>
C60H45O8P

> <PUBCHEM_MOLECULAR_WEIGHT>
925

> <PUBCHEM_OPENEYE_CAN_SMILES>
COC1=CC=C(C=C1)C2=CC(=CC(=C2)C3=CC4=CC=CC=C4C5=C3OP(=O)(OC6=C5C7=CC=CC=C7C=C6C8=CC(=CC(=C8)C9=CC=C(C=C9)OC)C1=CC=C(C=C1)OC)O)C1=CC=C(C=C1)OC

> <PUBCHEM_OPENEYE_ISO_SMILES>
COC1=CC=C(C=C1)C2=CC(=CC(=C2)C3=CC4=CC=CC=C4C5=C3OP(=O)(OC6=C5C7=CC=CC=C7C=C6C8=CC(=CC(=C8)C9=CC=C(C=C9)OC)C1=CC=C(C=C1)OC)O)C1=CC=C(C=C1)OC

> <PUBCHEM_CACTVS_TPSA>
92.7

> <PUBCHEM_MONOISOTOPIC_WEIGHT>
924.285205

> <PUBCHEM_TOTAL_CHARGE>
0

> <PUBCHEM_HEAVY_ATOM_COUNT>
69

> <PUBCHEM_ATOM_DEF_STEREO_COUNT>
0

> <PUBCHEM_ATOM_UDEF_STEREO_COUNT>
0

> <PUBCHEM_BOND_DEF_STEREO_COUNT>
0

> <PUBCHEM_BOND_UDEF_STEREO_COUNT>
0

> <PUBCHEM_ISOTOPIC_ATOM_COUNT>
0

> <PUBCHEM_COMPONENT_COUNT>
1

> <PUBCHEM_CACTVS_TAUTO_COUNT>
-1

> <PUBCHEM_COORDINATE_TYPE>
1
5
255

> <PUBCHEM_BONDANNOTATIONS>
10  12  8
10  14  8
11  13  8
11  15  8
12  16  8
13  17  8
14  18  8
14  24  8
15  19  8
15  25  8
16  20  8
17  21  8
18  20  8
18  26  8
19  21  8
19  27  8
22  28  8
22  30  8
23  29  8
23  31  8
24  32  8
25  33  8
26  34  8
27  35  8
28  36  8
29  37  8
30  38  8
31  39  8
32  34  8
33  35  8
36  40  8
37  41  8
38  40  8
39  41  8
42  46  8
42  48  8
43  47  8
43  49  8
44  50  8
44  52  8
45  51  8
45  53  8
46  54  8
47  55  8
48  56  8
49  57  8
50  58  8
51  59  8
52  60  8
53  61  8
54  62  8
55  63  8
56  62  8
57  63  8
58  64  8
59  65  8
60  64  8
61  65  8

$$$$
