54762633
  -OEChem-04292122293D

 38 42  0     0  0  0  0  0  0999 V2000
   -3.4759   -2.5306    2.0383 Br  0  0  0  0  0  0  0  0  0  0  0  0
    3.5374   -2.4589   -2.0251 Br  0  0  0  0  0  0  0  0  0  0  0  0
   -0.0255   -3.1160   -0.0370 P   0  0  0  0  0  0  0  0  0  0  0  0
   -0.5755   -2.1421    1.1416 O   0  0  0  0  0  0  0  0  0  0  0  0
    0.6315   -2.1423   -1.1613 O   0  0  0  0  0  0  0  0  0  0  0  0
    1.2595   -3.8273    0.6445 O   0  0  0  0  0  0  0  0  0  0  0  0
   -1.0384   -4.0797   -0.5861 O   0  0  0  0  0  0  0  0  0  0  0  0
   -0.7456    0.0081    0.0814 C   0  0  0  0  0  0  0  0  0  0  0  0
    0.7364    0.0201   -0.0879 C   0  0  0  0  0  0  0  0  0  0  0  0
   -1.6015    1.0242   -0.4459 C   0  0  0  0  0  0  0  0  0  0  0  0
    1.5690    1.0568    0.4403 C   0  0  0  0  0  0  0  0  0  0  0  0
   -1.3410   -1.0652    0.7717 C   0  0  0  0  0  0  0  0  0  0  0  0
    1.3579   -1.0454   -0.7690 C   0  0  0  0  0  0  0  0  0  0  0  0
   -2.9920    0.9771   -0.1507 C   0  0  0  0  0  0  0  0  0  0  0  0
    2.9615    1.0393    0.1526 C   0  0  0  0  0  0  0  0  0  0  0  0
   -2.6976   -1.1034    1.0641 C   0  0  0  0  0  0  0  0  0  0  0  0
    2.7175   -1.0506   -1.0549 C   0  0  0  0  0  0  0  0  0  0  0  0
   -3.5148   -0.0741    0.6163 C   0  0  0  0  0  0  0  0  0  0  0  0
    3.5105   -0.0024   -0.6074 C   0  0  0  0  0  0  0  0  0  0  0  0
   -1.1543    2.0836   -1.2733 C   0  0  0  0  0  0  0  0  0  0  0  0
    1.0964    2.1098    1.2623 C   0  0  0  0  0  0  0  0  0  0  0  0
   -3.8522    1.9763   -0.6356 C   0  0  0  0  0  0  0  0  0  0  0  0
    3.7981    2.0588    0.6372 C   0  0  0  0  0  0  0  0  0  0  0  0
   -2.0240    3.0655   -1.7525 C   0  0  0  0  0  0  0  0  0  0  0  0
    1.9424    3.1124    1.7415 C   0  0  0  0  0  0  0  0  0  0  0  0
   -3.3715    3.0154   -1.4279 C   0  0  0  0  0  0  0  0  0  0  0  0
    3.2918    3.0906    1.4228 C   0  0  0  0  0  0  0  0  0  0  0  0
   -4.5810   -0.0981    0.8386 H   0  0  0  0  0  0  0  0  0  0  0  0
    4.5778   -0.0037   -0.8255 H   0  0  0  0  0  0  0  0  0  0  0  0
   -0.1106    2.1582   -1.5702 H   0  0  0  0  0  0  0  0  0  0  0  0
    0.0503    2.1635    1.5554 H   0  0  0  0  0  0  0  0  0  0  0  0
   -4.9160    1.9496   -0.4060 H   0  0  0  0  0  0  0  0  0  0  0  0
    4.8632    2.0539    0.4123 H   0  0  0  0  0  0  0  0  0  0  0  0
   -1.6443    3.8657   -2.3810 H   0  0  0  0  0  0  0  0  0  0  0  0
    1.5426    3.9065    2.3653 H   0  0  0  0  0  0  0  0  0  0  0  0
   -4.0510    3.7772   -1.7979 H   0  0  0  0  0  0  0  0  0  0  0  0
    3.9531    3.8684    1.7926 H   0  0  0  0  0  0  0  0  0  0  0  0
    1.1171   -4.6008    1.2306 H   0  0  0  0  0  0  0  0  0  0  0  0
  1 16  1  0  0  0  0
  2 17  1  0  0  0  0
  3  4  1  0  0  0  0
  3  5  1  0  0  0  0
  3  6  1  0  0  0  0
  3  7  2  0  0  0  0
  4 12  1  0  0  0  0
  5 13  1  0  0  0  0
  6 38  1  0  0  0  0
  8  9  1  0  0  0  0
  8 10  1  0  0  0  0
  8 12  2  0  0  0  0
  9 11  1  0  0  0  0
  9 13  2  0  0  0  0
 10 14  1  0  0  0  0
 10 20  2  0  0  0  0
 11 15  1  0  0  0  0
 11 21  2  0  0  0  0
 12 16  1  0  0  0  0
 13 17  1  0  0  0  0
 14 18  1  0  0  0  0
 14 22  2  0  0  0  0
 15 19  1  0  0  0  0
 15 23  2  0  0  0  0
 16 18  2  0  0  0  0
 17 19  2  0  0  0  0
 18 28  1  0  0  0  0
 19 29  1  0  0  0  0
 20 24  1  0  0  0  0
 20 30  1  0  0  0  0
 21 25  1  0  0  0  0
 21 31  1  0  0  0  0
 22 26  1  0  0  0  0
 22 32  1  0  0  0  0
 23 27  1  0  0  0  0
 23 33  1  0  0  0  0
 24 26  2  0  0  0  0
 24 34  1  0  0  0  0
 25 27  2  0  0  0  0
 25 35  1  0  0  0  0
 26 36  1  0  0  0  0
 27 37  1  0  0  0  0
M  END
> <PUBCHEM_COMPOUND_CID>
54762633

> <PUBCHEM_CONFORMER_RMSD>
0.6

> <PUBCHEM_CONFORMER_DIVERSEORDER>
1
2

> <PUBCHEM_MMFF94_PARTIAL_CHARGES>
32
1 -0.11
12 0.08
13 0.08
16 0.11
17 0.11
18 -0.15
19 -0.15
2 -0.11
20 -0.15
21 -0.15
22 -0.15
23 -0.15
24 -0.15
25 -0.15
26 -0.15
27 -0.15
28 0.15
29 0.15
3 1.51
30 0.15
31 0.15
32 0.15
33 0.15
34 0.15
35 0.15
36 0.15
37 0.15
38 0.5
4 -0.35
5 -0.35
6 -0.77
7 -0.7

> <PUBCHEM_EFFECTIVE_ROTOR_COUNT>
0.4

> <PUBCHEM_PHARMACOPHORE_FEATURES>
9
1 1 hydrophobe
1 2 hydrophobe
1 6 acceptor
1 7 acceptor
6 10 14 20 22 24 26 rings
6 11 15 21 23 25 27 rings
6 8 10 12 14 16 18 rings
6 9 11 13 15 17 19 rings
7 3 4 5 8 9 12 13 rings

> <PUBCHEM_HEAVY_ATOM_COUNT>
27

> <PUBCHEM_ATOM_DEF_STEREO_COUNT>
0

> <PUBCHEM_ATOM_UDEF_STEREO_COUNT>
0

> <PUBCHEM_BOND_DEF_STEREO_COUNT>
0

> <PUBCHEM_BOND_UDEF_STEREO_COUNT>
0

> <PUBCHEM_ISOTOPIC_ATOM_COUNT>
0

> <PUBCHEM_COMPONENT_COUNT>
1

> <PUBCHEM_CACTVS_TAUTO_COUNT>
1

> <PUBCHEM_CONFORMER_ID>
03439C8900000001

> <PUBCHEM_MMFF94_ENERGY>
84.0405

> <PUBCHEM_FEATURE_SELFOVERLAP>
45.763

> <PUBCHEM_SHAPE_FINGERPRINT>
10165383 225 17768829893501230304
10369192 42 15902644351486209472
10675989 125 17039225420764520652
12035759 4 15166285294744535733
12293681 160 17546167402822705964
12403259 226 18338815462571940654
12553582 1 17623016685624576274
12623949 98 17842305780314045551
12633257 1 18056202616317795706
12730499 353 18338794508212318253
13004483 165 17116041134159488362
13140716 1 18410580569410169409
13402501 40 18410573989457513601
13911987 19 18057060025224467510
140371 6 17185037163592738582
15324884 4 18335712692729883371
16945 1 17969522419241444495
17974551 9 17751054990973153306
20739085 24 17329720228043709386
20775438 99 17976782525523567599
20905425 154 18188783729734396635
21033648 29 18269825566295194952
22182313 1 18335989774097682891
23419403 2 18271545133713333157
23526113 38 18271246006536982868
23536364 44 17620773686378320278
23557571 272 18187369865197093261
23559900 14 18188779336177304414
238 59 18198315426005016461
2748010 2 18335427906328086775
3187 122 17615959349877155874
3298306 158 18338513032976871942
3380486 145 17908141328528785123
3380486 77 16164407772716030402
3524813 1 18410582781244505836
495365 180 18198040526676112849
5265222 85 18188789348432178910
57527295 17 17836637527305309789
70251023 43 17055549960011567286
81228 2 17832420178225629499
90316 7 17758100884511185992
9862522 239 17912343627510556752
9925002 15 15821846799330938188

> <PUBCHEM_SHAPE_MULTIPOLES>
547.9
6.74
5.12
1.81
0.04
1.8
0
-2.06
-0.04
-0.02
0.02
0.02
-0.36
4.62

> <PUBCHEM_SHAPE_SELFOVERLAP>
1205.01

> <PUBCHEM_SHAPE_VOLUME>
303.5

> <PUBCHEM_COORDINATE_TYPE>
2
5
10

$$$$
