155009164
  -OEChem-04302100502D

 58 62  0     0  0  0  0  0  0999 V2000
    6.4362    2.1874    0.0000 P   0  0  0  0  0  0  0  0  0  0  0  0
    7.0597    1.4055    0.0000 O   0  0  0  0  0  0  0  0  0  0  0  0
    5.4362    2.1874    0.0000 O   0  0  0  0  0  0  0  0  0  0  0  0
    7.2180    2.8109    0.0000 O   0  0  0  0  0  0  0  0  0  0  0  0
    6.4362    3.1874    0.0000 O   0  0  0  0  0  0  0  0  0  0  0  0
    5.8424   -1.0407    0.0000 C   0  0  0  0  0  0  0  0  0  0  0  0
    4.2827   -0.2896    0.0000 C   0  0  0  0  0  0  0  0  0  0  0  0
    5.9362   -0.0033    0.0000 C   0  0  0  0  0  0  0  0  0  0  0  0
    5.0352    0.4306    0.0000 C   0  0  0  0  0  0  0  0  0  0  0  0
    6.6984   -1.6341    0.0000 C   0  0  0  0  0  0  0  0  0  0  0  0
    3.2850    0.0098    0.0000 C   0  0  0  0  0  0  0  0  0  0  0  0
    4.8542   -1.4887    0.0000 C   0  0  0  0  0  0  0  0  0  0  0  0
    3.9869   -1.3335    0.0000 C   0  0  0  0  0  0  0  0  0  0  0  0
    6.6257   -2.7166    0.0000 C   0  0  0  0  0  0  0  0  0  0  0  0
    2.2254   -0.2235    0.0000 C   0  0  0  0  0  0  0  0  0  0  0  0
    4.7564   -2.5693    0.0000 C   0  0  0  0  0  0  0  0  0  0  0  0
    2.8385   -1.7441    0.0000 C   0  0  0  0  0  0  0  0  0  0  0  0
    5.6482   -3.1874    0.0000 C   0  0  0  0  0  0  0  0  0  0  0  0
    2.0000   -1.1074    0.0000 C   0  0  0  0  0  0  0  0  0  0  0  0
    6.8372    0.4306    0.0000 C   0  0  0  0  0  0  0  0  0  0  0  0
    4.8127    1.4055    0.0000 C   0  0  0  0  0  0  0  0  0  0  0  0
    7.7068   -0.1428    0.0000 C   0  0  0  0  0  0  0  0  0  0  0  0
    3.8222    1.7279    0.0000 C   0  0  0  0  0  0  0  0  0  0  0  0
    7.6369   -1.1821    0.0000 C   0  0  0  0  0  0  0  0  0  0  0  0
    3.0532    1.0253    0.0000 C   0  0  0  0  0  0  0  0  0  0  0  0
    8.6026    0.3015    0.0000 C   0  0  0  0  0  0  0  0  0  0  0  0
    3.6110    2.7053    0.0000 C   0  0  0  0  0  0  0  0  0  0  0  0
    9.4353   -0.2523    0.0000 C   0  0  0  0  0  0  0  0  0  0  0  0
    2.6589    3.0111    0.0000 C   0  0  0  0  0  0  0  0  0  0  0  0
    4.6986   -0.8885    0.0000 H   0  0  0  0  0  0  0  0  0  0  0  0
    4.2362   -1.5393    0.0000 H   0  0  0  0  0  0  0  0  0  0  0  0
    4.0716   -1.9477    0.0000 H   0  0  0  0  0  0  0  0  0  0  0  0
    4.6054   -1.3766    0.0000 H   0  0  0  0  0  0  0  0  0  0  0  0
    6.7952   -3.3130    0.0000 H   0  0  0  0  0  0  0  0  0  0  0  0
    7.2423   -2.6517    0.0000 H   0  0  0  0  0  0  0  0  0  0  0  0
    2.1874    0.3953    0.0000 H   0  0  0  0  0  0  0  0  0  0  0  0
    1.6081   -0.1652    0.0000 H   0  0  0  0  0  0  0  0  0  0  0  0
    4.1576   -2.4086    0.0000 H   0  0  0  0  0  0  0  0  0  0  0  0
    4.4956   -3.1318    0.0000 H   0  0  0  0  0  0  0  0  0  0  0  0
    2.3760   -2.1570    0.0000 H   0  0  0  0  0  0  0  0  0  0  0  0
    3.1552   -2.2771    0.0000 H   0  0  0  0  0  0  0  0  0  0  0  0
    5.2130   -3.6290    0.0000 H   0  0  0  0  0  0  0  0  0  0  0  0
    6.0088   -3.6917    0.0000 H   0  0  0  0  0  0  0  0  0  0  0  0
    1.4249   -0.8757    0.0000 H   0  0  0  0  0  0  0  0  0  0  0  0
    1.6940   -1.6466    0.0000 H   0  0  0  0  0  0  0  0  0  0  0  0
    8.1505   -1.5294    0.0000 H   0  0  0  0  0  0  0  0  0  0  0  0
    2.4614    1.2103    0.0000 H   0  0  0  0  0  0  0  0  0  0  0  0
    9.0304    0.7503    0.0000 H   0  0  0  0  0  0  0  0  0  0  0  0
    8.2349    0.8006    0.0000 H   0  0  0  0  0  0  0  0  0  0  0  0
    4.2305    2.7290    0.0000 H   0  0  0  0  0  0  0  0  0  0  0  0
    3.6952    3.3196    0.0000 H   0  0  0  0  0  0  0  0  0  0  0  0
    9.0920   -0.7685    0.0000 H   0  0  0  0  0  0  0  0  0  0  0  0
    9.9516   -0.5956    0.0000 H   0  0  0  0  0  0  0  0  0  0  0  0
    9.7787    0.2640    0.0000 H   0  0  0  0  0  0  0  0  0  0  0  0
    2.8485    3.6014    0.0000 H   0  0  0  0  0  0  0  0  0  0  0  0
    2.0686    3.2007    0.0000 H   0  0  0  0  0  0  0  0  0  0  0  0
    2.4693    2.4208    0.0000 H   0  0  0  0  0  0  0  0  0  0  0  0
    7.7952    2.5844    0.0000 H   0  0  0  0  0  0  0  0  0  0  0  0
  1  2  1  0  0  0  0
  1  3  1  0  0  0  0
  1  4  1  0  0  0  0
  1  5  2  0  0  0  0
  2 20  1  0  0  0  0
  3 21  1  0  0  0  0
  4 58  1  0  0  0  0
  6  8  2  0  0  0  0
  6 10  1  0  0  0  0
  6 12  1  0  0  0  0
  7  9  2  0  0  0  0
  7 11  1  0  0  0  0
  7 13  1  0  0  0  0
  8  9  1  0  0  0  0
  8 20  1  0  0  0  0
  9 21  1  0  0  0  0
 10 14  1  0  0  0  0
 10 24  2  0  0  0  0
 11 15  1  0  0  0  0
 11 25  2  0  0  0  0
 12 16  1  0  0  0  0
 12 30  1  0  0  0  0
 12 31  1  0  0  0  0
 13 17  1  0  0  0  0
 13 32  1  0  0  0  0
 13 33  1  0  0  0  0
 14 18  1  0  0  0  0
 14 34  1  0  0  0  0
 14 35  1  0  0  0  0
 15 19  1  0  0  0  0
 15 36  1  0  0  0  0
 15 37  1  0  0  0  0
 16 18  1  0  0  0  0
 16 38  1  0  0  0  0
 16 39  1  0  0  0  0
 17 19  1  0  0  0  0
 17 40  1  0  0  0  0
 17 41  1  0  0  0  0
 18 42  1  0  0  0  0
 18 43  1  0  0  0  0
 19 44  1  0  0  0  0
 19 45  1  0  0  0  0
 20 22  2  0  0  0  0
 21 23  2  0  0  0  0
 22 24  1  0  0  0  0
 22 26  1  0  0  0  0
 23 25  1  0  0  0  0
 23 27  1  0  0  0  0
 24 46  1  0  0  0  0
 25 47  1  0  0  0  0
 26 28  1  0  0  0  0
 26 48  1  0  0  0  0
 26 49  1  0  0  0  0
 27 29  1  0  0  0  0
 27 50  1  0  0  0  0
 27 51  1  0  0  0  0
 28 52  1  0  0  0  0
 28 53  1  0  0  0  0
 28 54  1  0  0  0  0
 29 55  1  0  0  0  0
 29 56  1  0  0  0  0
 29 57  1  0  0  0  0
M  END
> <PUBCHEM_COMPOUND_CID>
155009164

> <PUBCHEM_COMPOUND_CANONICALIZED>
1

> <PUBCHEM_CACTVS_COMPLEXITY>
588

> <PUBCHEM_CACTVS_HBOND_ACCEPTOR>
4

> <PUBCHEM_CACTVS_HBOND_DONOR>
1

> <PUBCHEM_CACTVS_ROTATABLE_BOND>
2

> <PUBCHEM_CACTVS_SUBSKEYS>
AAADceB4OAIAAAAAAAAAAAAAAAAAAAAAAAAwYMGABIAAAADBQAAAGgAACCAADASAmAAyBoAAARCAQiBCAIACAAAgIAAAiAAECIgIJiKAERKAMAAkwBEIiAfAwPAO4AADAAAYAADAAAYAADAAAAAAAAAAAA==

> <PUBCHEM_IUPAC_OPENEYE_NAME>
10,16-diethyl-13-hydroxy-12,14-dioxa-13lambda5-phosphapentacyclo[13.8.0.02,11.03,8.018,23]tricosa-1(23),2,8,10,15,17-hexaene 13-oxide

> <PUBCHEM_IUPAC_CAS_NAME>
10,16-diethyl-13-hydroxy-12,14-dioxa-13lambda5-phosphapentacyclo[13.8.0.02,11.03,8.018,23]tricosa-1(23),2,8,10,15,17-hexaene 13-oxide

> <PUBCHEM_IUPAC_NAME_MARKUP>
10,16-diethyl-13-hydroxy-12,14-dioxa-13&lambda;<SUP>5</SUP>-phosphapentacyclo[13.8.0.0<SUP>2,11</SUP>.0<SUP>3,8</SUP>.0<SUP>18,23</SUP>]tricosa-1(23),2,8,10,15,17-hexaene 13-oxide

> <PUBCHEM_IUPAC_NAME>
10,16-diethyl-13-hydroxy-12,14-dioxa-13lambda5-phosphapentacyclo[13.8.0.02,11.03,8.018,23]tricosa-1(23),2,8,10,15,17-hexaene 13-oxide

> <PUBCHEM_IUPAC_SYSTEMATIC_NAME>
10,16-diethyl-13-oxidanyl-12,14-dioxa-13lambda5-phosphapentacyclo[13.8.0.02,11.03,8.018,23]tricosa-1(23),2,8,10,15,17-hexaene 13-oxide

> <PUBCHEM_IUPAC_TRADITIONAL_NAME>
10,16-diethyl-13-hydroxy-12,14-dioxa-13lambda5-phosphapentacyclo[13.8.0.02,11.03,8.018,23]tricosa-1(23),2,8,10,15,17-hexaene 13-oxide

> <PUBCHEM_IUPAC_INCHI>
InChI=1S/C24H29O4P/c1-3-15-13-17-9-5-7-11-19(17)21-22-20-12-8-6-10-18(20)14-16(4-2)24(22)28-29(25,26)27-23(15)21/h13-14H,3-12H2,1-2H3,(H,25,26)

> <PUBCHEM_IUPAC_INCHIKEY>
YXNXWDREAYPLPI-UHFFFAOYSA-N

> <PUBCHEM_XLOGP3_AA>
6.7

> <PUBCHEM_EXACT_MASS>
412.180346

> <PUBCHEM_MOLECULAR_FORMULA>
C24H29O4P

> <PUBCHEM_MOLECULAR_WEIGHT>
412.5

> <PUBCHEM_OPENEYE_CAN_SMILES>
CCC1=C2C(=C3CCCCC3=C1)C4=C5CCCCC5=CC(=C4OP(=O)(O2)O)CC

> <PUBCHEM_OPENEYE_ISO_SMILES>
CCC1=C2C(=C3CCCCC3=C1)C4=C5CCCCC5=CC(=C4OP(=O)(O2)O)CC

> <PUBCHEM_CACTVS_TPSA>
55.8

> <PUBCHEM_MONOISOTOPIC_WEIGHT>
412.180346

> <PUBCHEM_TOTAL_CHARGE>
0

> <PUBCHEM_HEAVY_ATOM_COUNT>
29

> <PUBCHEM_ATOM_DEF_STEREO_COUNT>
0

> <PUBCHEM_ATOM_UDEF_STEREO_COUNT>
0

> <PUBCHEM_BOND_DEF_STEREO_COUNT>
0

> <PUBCHEM_BOND_UDEF_STEREO_COUNT>
0

> <PUBCHEM_ISOTOPIC_ATOM_COUNT>
0

> <PUBCHEM_COMPONENT_COUNT>
1

> <PUBCHEM_CACTVS_TAUTO_COUNT>
-1

> <PUBCHEM_COORDINATE_TYPE>
1
5
255

> <PUBCHEM_BONDANNOTATIONS>
10  24  8
11  25  8
20  22  8
21  23  8
22  24  8
23  25  8
6  10  8
6  8  8
7  11  8
7  9  8
8  20  8
9  21  8

$$$$
