154996215
  -OEChem-04302100482D

114128  0     0  0  0  0  0  0999 V2000
    7.8466   -0.6890    0.0000 P   0  0  0  0  0  0  0  0  0  0  0  0
    8.4701   -1.4708    0.0000 O   0  0  0  0  0  0  0  0  0  0  0  0
    6.8466   -0.6890    0.0000 O   0  0  0  0  0  0  0  0  0  0  0  0
    8.6285   -0.0655    0.0000 O   0  0  0  0  0  0  0  0  0  0  0  0
    7.8466    0.3110    0.0000 O   0  0  0  0  0  0  0  0  0  0  0  0
    7.3466   -2.8796    0.0000 C   0  0  0  0  0  0  0  0  0  0  0  0
    6.4457   -2.4457    0.0000 C   0  0  0  0  0  0  0  0  0  0  0  0
    9.1172   -3.0192    0.0000 C   0  0  0  0  0  0  0  0  0  0  0  0
    5.2327   -1.1485    0.0000 C   0  0  0  0  0  0  0  0  0  0  0  0
    8.2476   -2.4457    0.0000 C   0  0  0  0  0  0  0  0  0  0  0  0
    6.2232   -1.4708    0.0000 C   0  0  0  0  0  0  0  0  0  0  0  0
   10.0131   -2.5749    0.0000 C   0  0  0  0  0  0  0  0  0  0  0  0
    5.0214   -0.1710    0.0000 C   0  0  0  0  0  0  0  0  0  0  0  0
    7.2528   -3.9170    0.0000 C   0  0  0  0  0  0  0  0  0  0  0  0
    5.6931   -3.1659    0.0000 C   0  0  0  0  0  0  0  0  0  0  0  0
   10.8458   -3.1286    0.0000 C   0  0  0  0  0  0  0  0  0  0  0  0
    5.7623    0.5006    0.0000 C   0  0  0  0  0  0  0  0  0  0  0  0
   10.0763   -1.5769    0.0000 C   0  0  0  0  0  0  0  0  0  0  0  0
    4.0693    0.1348    0.0000 C   0  0  0  0  0  0  0  0  0  0  0  0
    8.1089   -4.5104    0.0000 C   0  0  0  0  0  0  0  0  0  0  0  0
    4.6954   -2.8666    0.0000 C   0  0  0  0  0  0  0  0  0  0  0  0
    9.0474   -4.0584    0.0000 C   0  0  0  0  0  0  0  0  0  0  0  0
    4.4636   -1.8510    0.0000 C   0  0  0  0  0  0  0  0  0  0  0  0
   11.7417   -2.6843    0.0000 C   0  0  0  0  0  0  0  0  0  0  0  0
    5.5511    1.4781    0.0000 C   0  0  0  0  0  0  0  0  0  0  0  0
   10.9722   -1.1326    0.0000 C   0  0  0  0  0  0  0  0  0  0  0  0
    3.8581    1.1122    0.0000 C   0  0  0  0  0  0  0  0  0  0  0  0
   11.8049   -1.6863    0.0000 C   0  0  0  0  0  0  0  0  0  0  0  0
    4.5990    1.7838    0.0000 C   0  0  0  0  0  0  0  0  0  0  0  0
    6.2646   -4.3650    0.0000 C   0  0  0  0  0  0  0  0  0  0  0  0
    5.3974   -4.2098    0.0000 C   0  0  0  0  0  0  0  0  0  0  0  0
   12.7008   -1.2421    0.0000 C   0  0  0  0  0  0  0  0  0  0  0  0
    4.3877    2.7613    0.0000 C   0  0  0  0  0  0  0  0  0  0  0  0
    8.0362   -5.5929    0.0000 C   0  0  0  0  0  0  0  0  0  0  0  0
    3.6358   -3.0998    0.0000 C   0  0  0  0  0  0  0  0  0  0  0  0
   10.7639   -4.1670    0.0000 C   0  0  0  0  0  0  0  0  0  0  0  0
    6.7490    0.1669    0.0000 C   0  0  0  0  0  0  0  0  0  0  0  0
    9.2001   -1.0135    0.0000 C   0  0  0  0  0  0  0  0  0  0  0  0
    3.3085   -0.5767    0.0000 C   0  0  0  0  0  0  0  0  0  0  0  0
   12.6178   -3.2477    0.0000 C   0  0  0  0  0  0  0  0  0  0  0  0
    6.3119    2.1895    0.0000 C   0  0  0  0  0  0  0  0  0  0  0  0
   11.0540   -0.0942    0.0000 C   0  0  0  0  0  0  0  0  0  0  0  0
    2.8714    1.4460    0.0000 C   0  0  0  0  0  0  0  0  0  0  0  0
    6.1669   -5.4456    0.0000 C   0  0  0  0  0  0  0  0  0  0  0  0
    4.2490   -4.6204    0.0000 C   0  0  0  0  0  0  0  0  0  0  0  0
    7.0586   -6.0637    0.0000 C   0  0  0  0  0  0  0  0  0  0  0  0
    3.4105   -3.9837    0.0000 C   0  0  0  0  0  0  0  0  0  0  0  0
   11.6268   -4.7505    0.0000 C   0  0  0  0  0  0  0  0  0  0  0  0
    7.5261    0.8605    0.0000 C   0  0  0  0  0  0  0  0  0  0  0  0
    9.2579    0.0265    0.0000 C   0  0  0  0  0  0  0  0  0  0  0  0
    2.3143   -0.2658    0.0000 C   0  0  0  0  0  0  0  0  0  0  0  0
   12.5600   -4.2877    0.0000 C   0  0  0  0  0  0  0  0  0  0  0  0
    7.3061    1.8786    0.0000 C   0  0  0  0  0  0  0  0  0  0  0  0
   10.1911    0.4893    0.0000 C   0  0  0  0  0  0  0  0  0  0  0  0
    2.0943    0.7523    0.0000 C   0  0  0  0  0  0  0  0  0  0  0  0
   13.5335   -1.7958    0.0000 C   0  0  0  0  0  0  0  0  0  0  0  0
    3.4356    3.0671    0.0000 C   0  0  0  0  0  0  0  0  0  0  0  0
   12.7640   -0.2441    0.0000 C   0  0  0  0  0  0  0  0  0  0  0  0
    5.1286    3.4329    0.0000 C   0  0  0  0  0  0  0  0  0  0  0  0
   14.4294   -1.3515    0.0000 C   0  0  0  0  0  0  0  0  0  0  0  0
    3.2244    4.0445    0.0000 C   0  0  0  0  0  0  0  0  0  0  0  0
   14.4926   -0.3535    0.0000 C   0  0  0  0  0  0  0  0  0  0  0  0
    3.9653    4.7162    0.0000 C   0  0  0  0  0  0  0  0  0  0  0  0
   13.6599    0.2002    0.0000 C   0  0  0  0  0  0  0  0  0  0  0  0
    4.9174    4.4104    0.0000 C   0  0  0  0  0  0  0  0  0  0  0  0
   15.2877   -1.9416    0.0000 C   0  0  0  0  0  0  0  0  0  0  0  0
    2.2279    4.3477    0.0000 C   0  0  0  0  0  0  0  0  0  0  0  0
   15.4185    0.1236    0.0000 C   0  0  0  0  0  0  0  0  0  0  0  0
    3.7610    5.7376    0.0000 C   0  0  0  0  0  0  0  0  0  0  0  0
   16.2245   -1.4860    0.0000 C   0  0  0  0  0  0  0  0  0  0  0  0
    2.0000    5.3641    0.0000 C   0  0  0  0  0  0  0  0  0  0  0  0
   16.2903   -0.4465    0.0000 C   0  0  0  0  0  0  0  0  0  0  0  0
    2.7717    6.0637    0.0000 C   0  0  0  0  0  0  0  0  0  0  0  0
    9.5610   -4.4057    0.0000 H   0  0  0  0  0  0  0  0  0  0  0  0
    3.8719   -1.6660    0.0000 H   0  0  0  0  0  0  0  0  0  0  0  0
    5.7592   -4.0060    0.0000 H   0  0  0  0  0  0  0  0  0  0  0  0
    5.8503   -4.6332    0.0000 H   0  0  0  0  0  0  0  0  0  0  0  0
   10.2053   -4.4360    0.0000 H   0  0  0  0  0  0  0  0  0  0  0  0
    6.8730   -0.4406    0.0000 H   0  0  0  0  0  0  0  0  0  0  0  0
    8.6479   -1.2954    0.0000 H   0  0  0  0  0  0  0  0  0  0  0  0
    3.4465   -1.1811    0.0000 H   0  0  0  0  0  0  0  0  0  0  0  0
    8.5498   -5.9402    0.0000 H   0  0  0  0  0  0  0  0  0  0  0  0
    3.2047   -2.6543    0.0000 H   0  0  0  0  0  0  0  0  0  0  0  0
   13.1701   -2.9658    0.0000 H   0  0  0  0  0  0  0  0  0  0  0  0
    6.1739    2.7940    0.0000 H   0  0  0  0  0  0  0  0  0  0  0  0
   11.6126    0.1748    0.0000 H   0  0  0  0  0  0  0  0  0  0  0  0
    2.7474    2.0535    0.0000 H   0  0  0  0  0  0  0  0  0  0  0  0
    5.6052   -5.7081    0.0000 H   0  0  0  0  0  0  0  0  0  0  0  0
    4.1545   -5.2332    0.0000 H   0  0  0  0  0  0  0  0  0  0  0  0
    7.0099   -6.6818    0.0000 H   0  0  0  0  0  0  0  0  0  0  0  0
    2.8251   -4.1880    0.0000 H   0  0  0  0  0  0  0  0  0  0  0  0
   11.5853   -5.3691    0.0000 H   0  0  0  0  0  0  0  0  0  0  0  0
    8.1156    0.6686    0.0000 H   0  0  0  0  0  0  0  0  0  0  0  0
    8.7404    0.3678    0.0000 H   0  0  0  0  0  0  0  0  0  0  0  0
    1.8566   -0.6840    0.0000 H   0  0  0  0  0  0  0  0  0  0  0  0
   13.0776   -4.6290    0.0000 H   0  0  0  0  0  0  0  0  0  0  0  0
    7.7638    2.2968    0.0000 H   0  0  0  0  0  0  0  0  0  0  0  0
   10.2327    1.1079    0.0000 H   0  0  0  0  0  0  0  0  0  0  0  0
    1.5047    0.9442    0.0000 H   0  0  0  0  0  0  0  0  0  0  0  0
   13.4943   -2.4146    0.0000 H   0  0  0  0  0  0  0  0  0  0  0  0
    2.9763    2.6506    0.0000 H   0  0  0  0  0  0  0  0  0  0  0  0
   12.2477    0.0992    0.0000 H   0  0  0  0  0  0  0  0  0  0  0  0
    5.7189    3.2434    0.0000 H   0  0  0  0  0  0  0  0  0  0  0  0
    8.5361    0.5476    0.0000 H   0  0  0  0  0  0  0  0  0  0  0  0
   13.6990    0.8190    0.0000 H   0  0  0  0  0  0  0  0  0  0  0  0
    5.3767    4.8268    0.0000 H   0  0  0  0  0  0  0  0  0  0  0  0
   15.2414   -2.5599    0.0000 H   0  0  0  0  0  0  0  0  0  0  0  0
    1.7734    3.9260    0.0000 H   0  0  0  0  0  0  0  0  0  0  0  0
   15.4505    0.7428    0.0000 H   0  0  0  0  0  0  0  0  0  0  0  0
    4.2251    6.1486    0.0000 H   0  0  0  0  0  0  0  0  0  0  0  0
   16.7394   -1.8313    0.0000 H   0  0  0  0  0  0  0  0  0  0  0  0
    1.4090    5.5514    0.0000 H   0  0  0  0  0  0  0  0  0  0  0  0
   16.8447   -0.1689    0.0000 H   0  0  0  0  0  0  0  0  0  0  0  0
    2.6431    6.6702    0.0000 H   0  0  0  0  0  0  0  0  0  0  0  0
  1  2  1  0  0  0  0
  1  3  1  0  0  0  0
  1  4  1  0  0  0  0
  1  5  2  0  0  0  0
  2 10  1  0  0  0  0
  3 11  1  0  0  0  0
  4104  1  0  0  0  0
  6  7  1  0  0  0  0
  6 10  2  0  0  0  0
  6 14  1  0  0  0  0
  7 11  2  0  0  0  0
  7 15  1  0  0  0  0
  8 10  1  0  0  0  0
  8 12  1  0  0  0  0
  8 22  2  0  0  0  0
  9 11  1  0  0  0  0
  9 13  1  0  0  0  0
  9 23  2  0  0  0  0
 12 16  2  0  0  0  0
 12 18  1  0  0  0  0
 13 17  2  0  0  0  0
 13 19  1  0  0  0  0
 14 20  1  0  0  0  0
 14 30  2  0  0  0  0
 15 21  1  0  0  0  0
 15 31  2  0  0  0  0
 16 24  1  0  0  0  0
 16 36  1  0  0  0  0
 17 25  1  0  0  0  0
 17 37  1  0  0  0  0
 18 26  1  0  0  0  0
 18 38  2  0  0  0  0
 19 27  1  0  0  0  0
 19 39  2  0  0  0  0
 20 22  1  0  0  0  0
 20 34  2  0  0  0  0
 21 23  1  0  0  0  0
 21 35  2  0  0  0  0
 22 74  1  0  0  0  0
 23 75  1  0  0  0  0
 24 28  2  0  0  0  0
 24 40  1  0  0  0  0
 25 29  2  0  0  0  0
 25 41  1  0  0  0  0
 26 28  1  0  0  0  0
 26 42  2  0  0  0  0
 27 29  1  0  0  0  0
 27 43  2  0  0  0  0
 28 32  1  0  0  0  0
 29 33  1  0  0  0  0
 30 44  1  0  0  0  0
 30 76  1  0  0  0  0
 31 45  1  0  0  0  0
 31 77  1  0  0  0  0
 32 56  2  0  0  0  0
 32 58  1  0  0  0  0
 33 57  2  0  0  0  0
 33 59  1  0  0  0  0
 34 46  1  0  0  0  0
 34 82  1  0  0  0  0
 35 47  1  0  0  0  0
 35 83  1  0  0  0  0
 36 48  2  0  0  0  0
 36 78  1  0  0  0  0
 37 49  2  0  0  0  0
 37 79  1  0  0  0  0
 38 50  1  0  0  0  0
 38 80  1  0  0  0  0
 39 51  1  0  0  0  0
 39 81  1  0  0  0  0
 40 52  2  0  0  0  0
 40 84  1  0  0  0  0
 41 53  2  0  0  0  0
 41 85  1  0  0  0  0
 42 54  1  0  0  0  0
 42 86  1  0  0  0  0
 43 55  1  0  0  0  0
 43 87  1  0  0  0  0
 44 46  2  0  0  0  0
 44 88  1  0  0  0  0
 45 47  2  0  0  0  0
 45 89  1  0  0  0  0
 46 90  1  0  0  0  0
 47 91  1  0  0  0  0
 48 52  1  0  0  0  0
 48 92  1  0  0  0  0
 49 53  1  0  0  0  0
 49 93  1  0  0  0  0
 50 54  2  0  0  0  0
 50 94  1  0  0  0  0
 51 55  2  0  0  0  0
 51 95  1  0  0  0  0
 52 96  1  0  0  0  0
 53 97  1  0  0  0  0
 54 98  1  0  0  0  0
 55 99  1  0  0  0  0
 56 60  1  0  0  0  0
 56100  1  0  0  0  0
 57 61  1  0  0  0  0
 57101  1  0  0  0  0
 58 64  2  0  0  0  0
 58102  1  0  0  0  0
 59 65  2  0  0  0  0
 59103  1  0  0  0  0
 60 62  1  0  0  0  0
 60 66  2  0  0  0  0
 61 63  1  0  0  0  0
 61 67  2  0  0  0  0
 62 64  1  0  0  0  0
 62 68  2  0  0  0  0
 63 65  1  0  0  0  0
 63 69  2  0  0  0  0
 64105  1  0  0  0  0
 65106  1  0  0  0  0
 66 70  1  0  0  0  0
 66107  1  0  0  0  0
 67 71  1  0  0  0  0
 67108  1  0  0  0  0
 68 72  1  0  0  0  0
 68109  1  0  0  0  0
 69 73  1  0  0  0  0
 69110  1  0  0  0  0
 70 72  2  0  0  0  0
 70111  1  0  0  0  0
 71 73  2  0  0  0  0
 71112  1  0  0  0  0
 72113  1  0  0  0  0
 73114  1  0  0  0  0
M  END
> <PUBCHEM_COMPOUND_CID>
154996215

> <PUBCHEM_COMPOUND_CANONICALIZED>
1

> <PUBCHEM_CACTVS_COMPLEXITY>
1770

> <PUBCHEM_CACTVS_HBOND_ACCEPTOR>
4

> <PUBCHEM_CACTVS_HBOND_DONOR>
1

> <PUBCHEM_CACTVS_ROTATABLE_BOND>
4

> <PUBCHEM_CACTVS_SUBSKEYS>
AAADcfB8OAIAAAAAAAAAAAAAAAAAAAAAAAAwYMGDBIAAAADBVAAAGgAACCAADASAmAAwBsAAARCAQiBCAIACAAAgIAAIiAAECIgIJiKAERKAMAAkwBEIiAfAwPAO4AADAAAYAADAAAYAADAAAAAAAAAAAA==

> <PUBCHEM_IUPAC_OPENEYE_NAME>
13-hydroxy-10,16-bis[10-(2-naphthyl)-9-anthryl]-12,14-dioxa-13lambda5-phosphapentacyclo[13.8.0.02,11.03,8.018,23]tricosa-1(15),2(11),3,5,7,9,16,18,20,22-decaene 13-oxide

> <PUBCHEM_IUPAC_CAS_NAME>
13-hydroxy-10,16-bis[10-(2-naphthalenyl)-9-anthracenyl]-12,14-dioxa-13lambda5-phosphapentacyclo[13.8.0.02,11.03,8.018,23]tricosa-1(15),2(11),3,5,7,9,16,18,20,22-decaene 13-oxide

> <PUBCHEM_IUPAC_NAME_MARKUP>
13-hydroxy-10,16-bis(10-naphthalen-2-ylanthracen-9-yl)-12,14-dioxa-13&lambda;<SUP>5</SUP>-phosphapentacyclo[13.8.0.0<SUP>2,11</SUP>.0<SUP>3,8</SUP>.0<SUP>18,23</SUP>]tricosa-1(15),2(11),3,5,7,9,16,18,20,22-decaene 13-oxide

> <PUBCHEM_IUPAC_NAME>
13-hydroxy-10,16-bis(10-naphthalen-2-ylanthracen-9-yl)-12,14-dioxa-13lambda5-phosphapentacyclo[13.8.0.02,11.03,8.018,23]tricosa-1(15),2(11),3,5,7,9,16,18,20,22-decaene 13-oxide

> <PUBCHEM_IUPAC_SYSTEMATIC_NAME>
10,16-bis(10-naphthalen-2-ylanthracen-9-yl)-13-oxidanyl-12,14-dioxa-13lambda5-phosphapentacyclo[13.8.0.02,11.03,8.018,23]tricosa-1(15),2(11),3,5,7,9,16,18,20,22-decaene 13-oxide

> <PUBCHEM_IUPAC_TRADITIONAL_NAME>
13-hydroxy-10,16-bis[10-(2-naphthyl)-9-anthryl]-12,14-dioxa-13lambda5-phosphapentacyclo[13.8.0.02,11.03,8.018,23]tricosa-1(15),2(11),3,5,7,9,16,18,20,22-decaene 13-oxide

> <PUBCHEM_IUPAC_INCHI>
InChI=1S/C68H41O4P/c69-73(70)71-67-59(63-55-29-13-9-25-51(55)61(52-26-10-14-30-56(52)63)47-35-33-41-17-1-3-19-43(41)37-47)39-45-21-5-7-23-49(45)65(67)66-50-24-8-6-22-46(50)40-60(68(66)72-73)64-57-31-15-11-27-53(57)62(54-28-12-16-32-58(54)64)48-36-34-42-18-2-4-20-44(42)38-48/h1-40H,(H,69,70)

> <PUBCHEM_IUPAC_INCHIKEY>
HVPCCAJMJXRYMT-UHFFFAOYSA-N

> <PUBCHEM_XLOGP3_AA>
18.8

> <PUBCHEM_EXACT_MASS>
952.274247

> <PUBCHEM_MOLECULAR_FORMULA>
C68H41O4P

> <PUBCHEM_MOLECULAR_WEIGHT>
953

> <PUBCHEM_OPENEYE_CAN_SMILES>
C1=CC=C2C=C(C=CC2=C1)C3=C4C=CC=CC4=C(C5=CC=CC=C53)C6=CC7=CC=CC=C7C8=C6OP(=O)(OC9=C8C1=CC=CC=C1C=C9C1=C2C=CC=CC2=C(C2=CC=CC=C21)C1=CC2=CC=CC=C2C=C1)O

> <PUBCHEM_OPENEYE_ISO_SMILES>
C1=CC=C2C=C(C=CC2=C1)C3=C4C=CC=CC4=C(C5=CC=CC=C53)C6=CC7=CC=CC=C7C8=C6OP(=O)(OC9=C8C1=CC=CC=C1C=C9C1=C2C=CC=CC2=C(C2=CC=CC=C21)C1=CC2=CC=CC=C2C=C1)O

> <PUBCHEM_CACTVS_TPSA>
55.8

> <PUBCHEM_MONOISOTOPIC_WEIGHT>
952.274247

> <PUBCHEM_TOTAL_CHARGE>
0

> <PUBCHEM_HEAVY_ATOM_COUNT>
73

> <PUBCHEM_ATOM_DEF_STEREO_COUNT>
0

> <PUBCHEM_ATOM_UDEF_STEREO_COUNT>
0

> <PUBCHEM_BOND_DEF_STEREO_COUNT>
0

> <PUBCHEM_BOND_UDEF_STEREO_COUNT>
0

> <PUBCHEM_ISOTOPIC_ATOM_COUNT>
0

> <PUBCHEM_COMPONENT_COUNT>
1

> <PUBCHEM_CACTVS_TAUTO_COUNT>
-1

> <PUBCHEM_COORDINATE_TYPE>
1
5
255

> <PUBCHEM_BONDANNOTATIONS>
12  16  8
12  18  8
13  17  8
13  19  8
14  20  8
14  30  8
15  21  8
15  31  8
16  24  8
16  36  8
17  25  8
17  37  8
18  26  8
18  38  8
19  27  8
19  39  8
20  22  8
20  34  8
21  23  8
21  35  8
24  28  8
24  40  8
25  29  8
25  41  8
26  28  8
26  42  8
27  29  8
27  43  8
30  44  8
31  45  8
32  56  8
32  58  8
33  57  8
33  59  8
34  46  8
35  47  8
36  48  8
37  49  8
38  50  8
39  51  8
40  52  8
41  53  8
42  54  8
43  55  8
44  46  8
45  47  8
48  52  8
49  53  8
50  54  8
51  55  8
56  60  8
57  61  8
58  64  8
59  65  8
6  10  8
6  14  8
60  62  8
60  66  8
61  63  8
61  67  8
62  64  8
62  68  8
63  65  8
63  69  8
66  70  8
67  71  8
68  72  8
69  73  8
7  11  8
7  15  8
70  72  8
71  73  8
8  10  8
8  22  8
9  11  8
9  23  8

$$$$
