154996158
  -OEChem-04292123582D

 66 72  0     0  0  0  0  0  0999 V2000
    2.0000    1.1143    0.0000 Cl  0  0  0  0  0  0  0  0  0  0  0  0
    7.9151    0.6281    0.0000 Cl  0  0  0  0  0  0  0  0  0  0  0  0
    5.3859    1.8460    0.0000 Cl  0  0  0  0  0  0  0  0  0  0  0  0
    9.4541   -2.4754    0.0000 Cl  0  0  0  0  0  0  0  0  0  0  0  0
    3.0593    4.4125    0.0000 Cl  0  0  0  0  0  0  0  0  0  0  0  0
   11.3723    0.4091    0.0000 Cl  0  0  0  0  0  0  0  0  0  0  0  0
    6.5182    0.9622    0.0000 P   0  0  0  0  0  0  0  0  0  0  0  0
    5.5182    0.9622    0.0000 O   0  0  0  0  0  0  0  0  0  0  0  0
    7.1417    0.1804    0.0000 O   0  0  0  0  0  0  0  0  0  0  0  0
    7.3000    1.5857    0.0000 O   0  0  0  0  0  0  0  0  0  0  0  0
    6.5182    1.9622    0.0000 O   0  0  0  0  0  0  0  0  0  0  0  0
    4.3647   -1.5147    0.0000 C   0  0  0  0  0  0  0  0  0  0  0  0
    5.9243   -2.2658    0.0000 C   0  0  0  0  0  0  0  0  0  0  0  0
    5.1172   -0.7945    0.0000 C   0  0  0  0  0  0  0  0  0  0  0  0
    6.0182   -1.2284    0.0000 C   0  0  0  0  0  0  0  0  0  0  0  0
    4.0689   -2.5586    0.0000 C   0  0  0  0  0  0  0  0  0  0  0  0
    4.9362   -2.7138    0.0000 C   0  0  0  0  0  0  0  0  0  0  0  0
    3.3670   -1.2154    0.0000 C   0  0  0  0  0  0  0  0  0  0  0  0
    6.7804   -2.8592    0.0000 C   0  0  0  0  0  0  0  0  0  0  0  0
    2.9205   -2.9692    0.0000 C   0  0  0  0  0  0  0  0  0  0  0  0
    4.8384   -3.7944    0.0000 C   0  0  0  0  0  0  0  0  0  0  0  0
    2.3074   -1.4486    0.0000 C   0  0  0  0  0  0  0  0  0  0  0  0
    6.7077   -3.9417    0.0000 C   0  0  0  0  0  0  0  0  0  0  0  0
    2.0820   -2.3325    0.0000 C   0  0  0  0  0  0  0  0  0  0  0  0
    5.7302   -4.4125    0.0000 C   0  0  0  0  0  0  0  0  0  0  0  0
    4.8947    0.1804    0.0000 C   0  0  0  0  0  0  0  0  0  0  0  0
    6.9192   -0.7945    0.0000 C   0  0  0  0  0  0  0  0  0  0  0  0
    3.9042    0.5028    0.0000 C   0  0  0  0  0  0  0  0  0  0  0  0
    7.7887   -1.3679    0.0000 C   0  0  0  0  0  0  0  0  0  0  0  0
    3.1352   -0.1998    0.0000 C   0  0  0  0  0  0  0  0  0  0  0  0
    7.7189   -2.4072    0.0000 C   0  0  0  0  0  0  0  0  0  0  0  0
    3.6930    1.4802    0.0000 C   0  0  0  0  0  0  0  0  0  0  0  0
    8.6846   -0.9237    0.0000 C   0  0  0  0  0  0  0  0  0  0  0  0
    2.7409    1.7860    0.0000 C   0  0  0  0  0  0  0  0  0  0  0  0
    8.7478    0.0743    0.0000 C   0  0  0  0  0  0  0  0  0  0  0  0
    4.4338    2.1518    0.0000 C   0  0  0  0  0  0  0  0  0  0  0  0
    9.5173   -1.4774    0.0000 C   0  0  0  0  0  0  0  0  0  0  0  0
    2.5296    2.7634    0.0000 C   0  0  0  0  0  0  0  0  0  0  0  0
    9.6437    0.5186    0.0000 C   0  0  0  0  0  0  0  0  0  0  0  0
    4.2226    3.1293    0.0000 C   0  0  0  0  0  0  0  0  0  0  0  0
   10.4132   -1.0331    0.0000 C   0  0  0  0  0  0  0  0  0  0  0  0
    3.2705    3.4351    0.0000 C   0  0  0  0  0  0  0  0  0  0  0  0
   10.4764   -0.0351    0.0000 C   0  0  0  0  0  0  0  0  0  0  0  0
    4.1535   -3.1728    0.0000 H   0  0  0  0  0  0  0  0  0  0  0  0
    4.6874   -2.6017    0.0000 H   0  0  0  0  0  0  0  0  0  0  0  0
    4.7806   -2.1137    0.0000 H   0  0  0  0  0  0  0  0  0  0  0  0
    4.3182   -2.7644    0.0000 H   0  0  0  0  0  0  0  0  0  0  0  0
    2.4580   -3.3821    0.0000 H   0  0  0  0  0  0  0  0  0  0  0  0
    3.2372   -3.5023    0.0000 H   0  0  0  0  0  0  0  0  0  0  0  0
    4.2396   -3.6337    0.0000 H   0  0  0  0  0  0  0  0  0  0  0  0
    4.5776   -4.3569    0.0000 H   0  0  0  0  0  0  0  0  0  0  0  0
    2.2694   -0.8298    0.0000 H   0  0  0  0  0  0  0  0  0  0  0  0
    1.6901   -1.3903    0.0000 H   0  0  0  0  0  0  0  0  0  0  0  0
    6.8772   -4.5381    0.0000 H   0  0  0  0  0  0  0  0  0  0  0  0
    7.3243   -3.8768    0.0000 H   0  0  0  0  0  0  0  0  0  0  0  0
    1.5069   -2.1008    0.0000 H   0  0  0  0  0  0  0  0  0  0  0  0
    1.7760   -2.8717    0.0000 H   0  0  0  0  0  0  0  0  0  0  0  0
    5.2950   -4.8541    0.0000 H   0  0  0  0  0  0  0  0  0  0  0  0
    6.0908   -4.9168    0.0000 H   0  0  0  0  0  0  0  0  0  0  0  0
    2.5434   -0.0148    0.0000 H   0  0  0  0  0  0  0  0  0  0  0  0
    8.2325   -2.7545    0.0000 H   0  0  0  0  0  0  0  0  0  0  0  0
    7.2076    2.1988    0.0000 H   0  0  0  0  0  0  0  0  0  0  0  0
    1.9393    2.9530    0.0000 H   0  0  0  0  0  0  0  0  0  0  0  0
    9.6829    1.1374    0.0000 H   0  0  0  0  0  0  0  0  0  0  0  0
    4.6819    3.5457    0.0000 H   0  0  0  0  0  0  0  0  0  0  0  0
   10.9295   -1.3764    0.0000 H   0  0  0  0  0  0  0  0  0  0  0  0
  1 34  1  0  0  0  0
  2 35  1  0  0  0  0
  3 36  1  0  0  0  0
  4 37  1  0  0  0  0
  5 42  1  0  0  0  0
  6 43  1  0  0  0  0
  7  8  1  0  0  0  0
  7  9  1  0  0  0  0
  7 10  1  0  0  0  0
  7 11  2  0  0  0  0
  8 26  1  0  0  0  0
  9 27  1  0  0  0  0
 10 62  1  0  0  0  0
 12 14  2  0  0  0  0
 12 16  1  0  0  0  0
 12 18  1  0  0  0  0
 13 15  2  0  0  0  0
 13 17  1  0  0  0  0
 13 19  1  0  0  0  0
 14 15  1  0  0  0  0
 14 26  1  0  0  0  0
 15 27  1  0  0  0  0
 16 20  1  0  0  0  0
 16 44  1  0  0  0  0
 16 45  1  0  0  0  0
 17 21  1  0  0  0  0
 17 46  1  0  0  0  0
 17 47  1  0  0  0  0
 18 22  1  0  0  0  0
 18 30  2  0  0  0  0
 19 23  1  0  0  0  0
 19 31  2  0  0  0  0
 20 24  1  0  0  0  0
 20 48  1  0  0  0  0
 20 49  1  0  0  0  0
 21 25  1  0  0  0  0
 21 50  1  0  0  0  0
 21 51  1  0  0  0  0
 22 24  1  0  0  0  0
 22 52  1  0  0  0  0
 22 53  1  0  0  0  0
 23 25  1  0  0  0  0
 23 54  1  0  0  0  0
 23 55  1  0  0  0  0
 24 56  1  0  0  0  0
 24 57  1  0  0  0  0
 25 58  1  0  0  0  0
 25 59  1  0  0  0  0
 26 28  2  0  0  0  0
 27 29  2  0  0  0  0
 28 30  1  0  0  0  0
 28 32  1  0  0  0  0
 29 31  1  0  0  0  0
 29 33  1  0  0  0  0
 30 60  1  0  0  0  0
 31 61  1  0  0  0  0
 32 34  2  0  0  0  0
 32 36  1  0  0  0  0
 33 35  2  0  0  0  0
 33 37  1  0  0  0  0
 34 38  1  0  0  0  0
 35 39  1  0  0  0  0
 36 40  2  0  0  0  0
 37 41  2  0  0  0  0
 38 42  2  0  0  0  0
 38 63  1  0  0  0  0
 39 43  2  0  0  0  0
 39 64  1  0  0  0  0
 40 42  1  0  0  0  0
 40 65  1  0  0  0  0
 41 43  1  0  0  0  0
 41 66  1  0  0  0  0
M  END
> <PUBCHEM_COMPOUND_CID>
154996158

> <PUBCHEM_COMPOUND_CANONICALIZED>
1

> <PUBCHEM_CACTVS_COMPLEXITY>
955

> <PUBCHEM_CACTVS_HBOND_ACCEPTOR>
4

> <PUBCHEM_CACTVS_HBOND_DONOR>
1

> <PUBCHEM_CACTVS_ROTATABLE_BOND>
2

> <PUBCHEM_CACTVS_SUBSKEYS>
AAADceB8OAIHAAAAAAAAAAAAAAAAAAAAAAAwYMGDBIAAAADBVAAAGgIACCAADAaAmCAwBoAAARCAQiBCAIACAAAgJQAAiAAECogIJiKBExKAMAAkwBEIiAfAwPAO5AADAACZAADIAAYAATIAAAAAAAAAAA==

> <PUBCHEM_IUPAC_OPENEYE_NAME>
13-hydroxy-10,16-bis(2,4,6-trichlorophenyl)-12,14-dioxa-13lambda5-phosphapentacyclo[13.8.0.02,11.03,8.018,23]tricosa-1(23),2,8,10,15,17-hexaene 13-oxide

> <PUBCHEM_IUPAC_CAS_NAME>
13-hydroxy-10,16-bis(2,4,6-trichlorophenyl)-12,14-dioxa-13lambda5-phosphapentacyclo[13.8.0.02,11.03,8.018,23]tricosa-1(23),2,8,10,15,17-hexaene 13-oxide

> <PUBCHEM_IUPAC_NAME_MARKUP>
13-hydroxy-10,16-bis(2,4,6-trichlorophenyl)-12,14-dioxa-13&lambda;<SUP>5</SUP>-phosphapentacyclo[13.8.0.0<SUP>2,11</SUP>.0<SUP>3,8</SUP>.0<SUP>18,23</SUP>]tricosa-1(23),2,8,10,15,17-hexaene 13-oxide

> <PUBCHEM_IUPAC_NAME>
13-hydroxy-10,16-bis(2,4,6-trichlorophenyl)-12,14-dioxa-13lambda5-phosphapentacyclo[13.8.0.02,11.03,8.018,23]tricosa-1(23),2,8,10,15,17-hexaene 13-oxide

> <PUBCHEM_IUPAC_SYSTEMATIC_NAME>
13-oxidanyl-10,16-bis[2,4,6-tris(chloranyl)phenyl]-12,14-dioxa-13lambda5-phosphapentacyclo[13.8.0.02,11.03,8.018,23]tricosa-1(23),2,8,10,15,17-hexaene 13-oxide

> <PUBCHEM_IUPAC_TRADITIONAL_NAME>
13-hydroxy-10,16-bis(2,4,6-trichlorophenyl)-12,14-dioxa-13lambda5-phosphapentacyclo[13.8.0.02,11.03,8.018,23]tricosa-1(23),2,8,10,15,17-hexaene 13-oxide

> <PUBCHEM_IUPAC_INCHI>
InChI=1S/C32H23Cl6O4P/c33-17-11-23(35)27(24(36)12-17)21-9-15-5-1-3-7-19(15)29-30-20-8-4-2-6-16(20)10-22(28-25(37)13-18(34)14-26(28)38)32(30)42-43(39,40)41-31(21)29/h9-14H,1-8H2,(H,39,40)

> <PUBCHEM_IUPAC_INCHIKEY>
FUCYRSVNVUEEPK-UHFFFAOYSA-N

> <PUBCHEM_XLOGP3_AA>
12.1

> <PUBCHEM_EXACT_MASS>
713.943562

> <PUBCHEM_MOLECULAR_FORMULA>
C32H23Cl6O4P

> <PUBCHEM_MOLECULAR_WEIGHT>
715.2

> <PUBCHEM_OPENEYE_CAN_SMILES>
C1CCC2=C3C4=C5CCCCC5=CC(=C4OP(=O)(OC3=C(C=C2C1)C6=C(C=C(C=C6Cl)Cl)Cl)O)C7=C(C=C(C=C7Cl)Cl)Cl

> <PUBCHEM_OPENEYE_ISO_SMILES>
C1CCC2=C3C4=C5CCCCC5=CC(=C4OP(=O)(OC3=C(C=C2C1)C6=C(C=C(C=C6Cl)Cl)Cl)O)C7=C(C=C(C=C7Cl)Cl)Cl

> <PUBCHEM_CACTVS_TPSA>
55.8

> <PUBCHEM_MONOISOTOPIC_WEIGHT>
711.946512

> <PUBCHEM_TOTAL_CHARGE>
0

> <PUBCHEM_HEAVY_ATOM_COUNT>
43

> <PUBCHEM_ATOM_DEF_STEREO_COUNT>
0

> <PUBCHEM_ATOM_UDEF_STEREO_COUNT>
0

> <PUBCHEM_BOND_DEF_STEREO_COUNT>
0

> <PUBCHEM_BOND_UDEF_STEREO_COUNT>
0

> <PUBCHEM_ISOTOPIC_ATOM_COUNT>
0

> <PUBCHEM_COMPONENT_COUNT>
1

> <PUBCHEM_CACTVS_TAUTO_COUNT>
-1

> <PUBCHEM_COORDINATE_TYPE>
1
5
255

> <PUBCHEM_BONDANNOTATIONS>
12  14  8
12  18  8
13  15  8
13  19  8
14  26  8
15  27  8
18  30  8
19  31  8
26  28  8
27  29  8
28  30  8
29  31  8
32  34  8
32  36  8
33  35  8
33  37  8
34  38  8
35  39  8
36  40  8
37  41  8
38  42  8
39  43  8
40  42  8
41  43  8

$$$$
