12151053
  -OEChem-04302101593D

 66 72  0     0  0  0  0  0  0999 V2000
   -0.0324    1.7268    0.0697 P   0  0  0  0  0  0  0  0  0  0  0  0
    1.0661    0.7554    0.7720 O   0  0  0  0  0  0  0  0  0  0  0  0
   -1.0455    0.7519   -0.7448 O   0  0  0  0  0  0  0  0  0  0  0  0
    0.8050    2.4537   -1.1102 O   0  0  0  0  0  0  0  0  0  0  0  0
   -0.6984    2.6780    1.0225 O   0  0  0  0  0  0  0  0  0  0  0  0
    6.2707    3.8784    1.2537 O   0  0  0  0  0  0  0  0  0  0  0  0
   -6.2428    3.9146   -1.2566 O   0  0  0  0  0  0  0  0  0  0  0  0
    0.6938   -1.4019   -0.2511 C   0  0  0  0  0  0  0  0  0  0  0  0
   -0.7067   -1.4039    0.2623 C   0  0  0  0  0  0  0  0  0  0  0  0
    1.5472   -0.3328    0.0870 C   0  0  0  0  0  0  0  0  0  0  0  0
   -1.5561   -0.3339   -0.0794 C   0  0  0  0  0  0  0  0  0  0  0  0
    1.2084   -2.4286   -1.1045 C   0  0  0  0  0  0  0  0  0  0  0  0
   -1.2283   -2.4305    1.1092 C   0  0  0  0  0  0  0  0  0  0  0  0
    2.8904   -0.3153   -0.2676 C   0  0  0  0  0  0  0  0  0  0  0  0
   -2.9001   -0.3081    0.2675 C   0  0  0  0  0  0  0  0  0  0  0  0
    2.5818   -2.3982   -1.4720 C   0  0  0  0  0  0  0  0  0  0  0  0
   -2.6039   -2.3963    1.4687 C   0  0  0  0  0  0  0  0  0  0  0  0
    3.4058   -1.3539   -1.0312 C   0  0  0  0  0  0  0  0  0  0  0  0
   -3.4225   -1.3474    1.0257 C   0  0  0  0  0  0  0  0  0  0  0  0
    0.4248   -3.4834   -1.6351 C   0  0  0  0  0  0  0  0  0  0  0  0
   -0.4500   -3.4887    1.6400 C   0  0  0  0  0  0  0  0  0  0  0  0
    3.7663    0.7710    0.1264 C   0  0  0  0  0  0  0  0  0  0  0  0
   -3.7658    0.7851   -0.1271 C   0  0  0  0  0  0  0  0  0  0  0  0
    3.1195   -3.4076   -2.2880 C   0  0  0  0  0  0  0  0  0  0  0  0
   -3.1485   -3.4062    2.2792 C   0  0  0  0  0  0  0  0  0  0  0  0
    0.9732   -4.4758   -2.4504 C   0  0  0  0  0  0  0  0  0  0  0  0
   -1.0059   -4.4816    2.4496 C   0  0  0  0  0  0  0  0  0  0  0  0
    2.3221   -4.4416   -2.7708 C   0  0  0  0  0  0  0  0  0  0  0  0
   -2.3563   -4.4438    2.7634 C   0  0  0  0  0  0  0  0  0  0  0  0
    3.8968    1.8894   -0.6938 C   0  0  0  0  0  0  0  0  0  0  0  0
   -3.8924    1.9024    0.6957 C   0  0  0  0  0  0  0  0  0  0  0  0
    4.4737    0.6924    1.3240 C   0  0  0  0  0  0  0  0  0  0  0  0
   -4.4687    0.7158   -1.3283 C   0  0  0  0  0  0  0  0  0  0  0  0
    4.7393    2.9345   -0.3147 C   0  0  0  0  0  0  0  0  0  0  0  0
   -4.7255    2.9548    0.3160 C   0  0  0  0  0  0  0  0  0  0  0  0
    5.3162    1.7376    1.7032 C   0  0  0  0  0  0  0  0  0  0  0  0
   -5.3018    1.7683   -1.7082 C   0  0  0  0  0  0  0  0  0  0  0  0
    5.4489    2.8587    0.8838 C   0  0  0  0  0  0  0  0  0  0  0  0
   -5.4302    2.8879   -0.8860 C   0  0  0  0  0  0  0  0  0  0  0  0
    6.3597    4.9944    0.3690 C   0  0  0  0  0  0  0  0  0  0  0  0
   -6.3278    5.0285   -0.3689 C   0  0  0  0  0  0  0  0  0  0  0  0
    4.4580   -1.3422   -1.3155 H   0  0  0  0  0  0  0  0  0  0  0  0
   -4.4760   -1.3328    1.3050 H   0  0  0  0  0  0  0  0  0  0  0  0
   -0.6411   -3.5463   -1.4282 H   0  0  0  0  0  0  0  0  0  0  0  0
    0.6166   -3.5539    1.4373 H   0  0  0  0  0  0  0  0  0  0  0  0
    4.1722   -3.3930   -2.5648 H   0  0  0  0  0  0  0  0  0  0  0  0
   -4.2026   -3.3893    2.5506 H   0  0  0  0  0  0  0  0  0  0  0  0
    0.3419   -5.2716   -2.8345 H   0  0  0  0  0  0  0  0  0  0  0  0
   -0.3792   -5.2806    2.8347 H   0  0  0  0  0  0  0  0  0  0  0  0
    2.7529   -5.2115   -3.4038 H   0  0  0  0  0  0  0  0  0  0  0  0
   -2.7926   -5.2141    3.3921 H   0  0  0  0  0  0  0  0  0  0  0  0
    3.3661    1.9561   -1.6400 H   0  0  0  0  0  0  0  0  0  0  0  0
   -3.3568    1.9660    1.6398 H   0  0  0  0  0  0  0  0  0  0  0  0
    4.3807   -0.1742    1.9741 H   0  0  0  0  0  0  0  0  0  0  0  0
   -4.3790   -0.1495   -1.9806 H   0  0  0  0  0  0  0  0  0  0  0  0
    1.3261    3.2560   -0.8938 H   0  0  0  0  0  0  0  0  0  0  0  0
    4.7986    3.7732   -0.9997 H   0  0  0  0  0  0  0  0  0  0  0  0
   -4.7802    3.7929    1.0023 H   0  0  0  0  0  0  0  0  0  0  0  0
    5.8663    1.6730    2.6381 H   0  0  0  0  0  0  0  0  0  0  0  0
   -5.8479    1.7105   -2.6457 H   0  0  0  0  0  0  0  0  0  0  0  0
    7.0553    5.7097    0.8199 H   0  0  0  0  0  0  0  0  0  0  0  0
    5.3963    5.5057    0.2680 H   0  0  0  0  0  0  0  0  0  0  0  0
    6.7808    4.7068   -0.6004 H   0  0  0  0  0  0  0  0  0  0  0  0
   -5.3613    5.5327   -0.2624 H   0  0  0  0  0  0  0  0  0  0  0  0
   -6.7548    4.7410    0.5978 H   0  0  0  0  0  0  0  0  0  0  0  0
   -7.0165    5.7500   -0.8207 H   0  0  0  0  0  0  0  0  0  0  0  0
  1  2  1  0  0  0  0
  1  3  1  0  0  0  0
  1  4  1  0  0  0  0
  1  5  2  0  0  0  0
  2 10  1  0  0  0  0
  3 11  1  0  0  0  0
  4 56  1  0  0  0  0
  6 38  1  0  0  0  0
  6 40  1  0  0  0  0
  7 39  1  0  0  0  0
  7 41  1  0  0  0  0
  8  9  1  0  0  0  0
  8 10  2  0  0  0  0
  8 12  1  0  0  0  0
  9 11  2  0  0  0  0
  9 13  1  0  0  0  0
 10 14  1  0  0  0  0
 11 15  1  0  0  0  0
 12 16  1  0  0  0  0
 12 20  2  0  0  0  0
 13 17  1  0  0  0  0
 13 21  2  0  0  0  0
 14 18  2  0  0  0  0
 14 22  1  0  0  0  0
 15 19  2  0  0  0  0
 15 23  1  0  0  0  0
 16 18  1  0  0  0  0
 16 24  2  0  0  0  0
 17 19  1  0  0  0  0
 17 25  2  0  0  0  0
 18 42  1  0  0  0  0
 19 43  1  0  0  0  0
 20 26  1  0  0  0  0
 20 44  1  0  0  0  0
 21 27  1  0  0  0  0
 21 45  1  0  0  0  0
 22 30  2  0  0  0  0
 22 32  1  0  0  0  0
 23 31  2  0  0  0  0
 23 33  1  0  0  0  0
 24 28  1  0  0  0  0
 24 46  1  0  0  0  0
 25 29  1  0  0  0  0
 25 47  1  0  0  0  0
 26 28  2  0  0  0  0
 26 48  1  0  0  0  0
 27 29  2  0  0  0  0
 27 49  1  0  0  0  0
 28 50  1  0  0  0  0
 29 51  1  0  0  0  0
 30 34  1  0  0  0  0
 30 52  1  0  0  0  0
 31 35  1  0  0  0  0
 31 53  1  0  0  0  0
 32 36  2  0  0  0  0
 32 54  1  0  0  0  0
 33 37  2  0  0  0  0
 33 55  1  0  0  0  0
 34 38  2  0  0  0  0
 34 57  1  0  0  0  0
 35 39  2  0  0  0  0
 35 58  1  0  0  0  0
 36 38  1  0  0  0  0
 36 59  1  0  0  0  0
 37 39  1  0  0  0  0
 37 60  1  0  0  0  0
 40 61  1  0  0  0  0
 40 62  1  0  0  0  0
 40 63  1  0  0  0  0
 41 64  1  0  0  0  0
 41 65  1  0  0  0  0
 41 66  1  0  0  0  0
M  END
> <PUBCHEM_COMPOUND_CID>
12151053

> <PUBCHEM_CONFORMER_RMSD>
0.8

> <PUBCHEM_CONFORMER_DIVERSEORDER>
1
2

> <PUBCHEM_MMFF94_PARTIAL_CHARGES>
50
1 1.51
10 0.08
11 0.08
18 -0.15
19 -0.15
2 -0.35
20 -0.15
21 -0.15
24 -0.15
25 -0.15
26 -0.15
27 -0.15
28 -0.15
29 -0.15
3 -0.35
30 -0.15
31 -0.15
32 -0.15
33 -0.15
34 -0.15
35 -0.15
36 -0.15
37 -0.15
38 0.08
39 0.08
4 -0.77
40 0.28
41 0.28
42 0.15
43 0.15
44 0.15
45 0.15
46 0.15
47 0.15
48 0.15
49 0.15
5 -0.7
50 0.15
51 0.15
52 0.15
53 0.15
54 0.15
55 0.15
56 0.5
57 0.15
58 0.15
59 0.15
6 -0.36
60 0.15
7 -0.36

> <PUBCHEM_EFFECTIVE_ROTOR_COUNT>
4.4

> <PUBCHEM_PHARMACOPHORE_FEATURES>
11
1 4 acceptor
1 5 acceptor
1 6 acceptor
1 7 acceptor
6 12 16 20 24 26 28 rings
6 13 17 21 25 27 29 rings
6 22 30 32 34 36 38 rings
6 23 31 33 35 37 39 rings
6 8 10 12 14 16 18 rings
6 9 11 13 15 17 19 rings
7 1 2 3 8 9 10 11 rings

> <PUBCHEM_HEAVY_ATOM_COUNT>
41

> <PUBCHEM_ATOM_DEF_STEREO_COUNT>
0

> <PUBCHEM_ATOM_UDEF_STEREO_COUNT>
0

> <PUBCHEM_BOND_DEF_STEREO_COUNT>
0

> <PUBCHEM_BOND_UDEF_STEREO_COUNT>
0

> <PUBCHEM_ISOTOPIC_ATOM_COUNT>
0

> <PUBCHEM_COMPONENT_COUNT>
1

> <PUBCHEM_CACTVS_TAUTO_COUNT>
1

> <PUBCHEM_CONFORMER_ID>
00B9690D00000001

> <PUBCHEM_MMFF94_ENERGY>
160.2243

> <PUBCHEM_FEATURE_SELFOVERLAP>
55.919

> <PUBCHEM_SHAPE_FINGERPRINT>
10258939 38 18118977016292207875
10290309 65 18127986393780357300
10305334 12 18041542716194935490
10675989 125 18121494661865463281
11093857 5 17969240975236704323
11115154 58 17267234509658830708
11720765 8 17766277574646372526
11966995 178 17832146023076744381
12202916 173 17976259359246443723
12440610 7 18334303067247031567
13540713 4 18338815458276888910
13911987 19 17844814878548103720
140371 6 18338814358781111372
14725015 67 17902225620663201084
14747281 78 17912113597293116325
14856354 85 17393894290026271178
15001296 14 18124867959782206461
15324884 4 18197241272033428718
15351339 4 17034460162802452707
15530120 55 17630580381364699029
15775530 1 18338818756811837186
16993438 75 18267296723947295555
17980427 26 18046604751976082207
19053607 189 18270948090489754640
19246450 95 18269816754086900818
19304152 47 17976540843292032290
19309040 13 17988937634668188245
21033648 29 18115316574990773869
21987440 362 16230512756919556861
22182313 1 18198083532410481846
23559900 14 18269002998795977702
25223398 141 17389139718079673691
27425 322 18266455404985206343
376196 1 18411695461279278927
4144715 1 18115311210713336704
4403749 210 18126274479788510904
469060 322 17624703740131631711
5080951 261 16699765938080146686
5951187 136 18194394498609958530
6086070 43 17256519726524689397
6371380 46 18189900807894119946
7399639 24 18126027063243113259
9896288 288 18044093677803113346
9981440 41 18272364312889262698

> <PUBCHEM_SHAPE_MULTIPOLES>
812.39
13.1
8.03
2.36
0.23
0.32
0.02
-24.53
-0.03
-0.16
0.01
-0.01
3.78
7.45

> <PUBCHEM_SHAPE_SELFOVERLAP>
1838.539

> <PUBCHEM_SHAPE_VOLUME>
427

> <PUBCHEM_COORDINATE_TYPE>
2
5
10

$$$$
