154996183
  -OEChem-04302101122D

 86 92  0     0  0  0  0  0  0999 V2000
    8.2112    1.3420    0.0000 P   0  0  0  0  0  0  0  0  0  0  0  0
    8.8346    0.5601    0.0000 O   0  0  0  0  0  0  0  0  0  0  0  0
    7.2112    1.3420    0.0000 O   0  0  0  0  0  0  0  0  0  0  0  0
    8.2112    2.3420    0.0000 O   0  0  0  0  0  0  0  0  0  0  0  0
    8.9930    1.9654    0.0000 O   0  0  0  0  0  0  0  0  0  0  0  0
   11.1471   -2.0957    0.0000 O   0  0  0  0  0  0  0  0  0  0  0  0
    3.6930    1.4940    0.0000 O   0  0  0  0  0  0  0  0  0  0  0  0
    7.6173   -1.8861    0.0000 C   0  0  0  0  0  0  0  0  0  0  0  0
    6.0576   -1.1350    0.0000 C   0  0  0  0  0  0  0  0  0  0  0  0
    7.7112   -0.8487    0.0000 C   0  0  0  0  0  0  0  0  0  0  0  0
    6.8102   -0.4148    0.0000 C   0  0  0  0  0  0  0  0  0  0  0  0
    6.9856   -2.7682    0.0000 C   0  0  0  0  0  0  0  0  0  0  0  0
    6.3235   -2.1869    0.0000 C   0  0  0  0  0  0  0  0  0  0  0  0
    8.4734   -2.4795    0.0000 C   0  0  0  0  0  0  0  0  0  0  0  0
    5.0600   -0.8356    0.0000 C   0  0  0  0  0  0  0  0  0  0  0  0
    7.3805   -3.9220    0.0000 C   0  0  0  0  0  0  0  0  0  0  0  0
    5.5396   -2.9371    0.0000 C   0  0  0  0  0  0  0  0  0  0  0  0
    8.9517   -3.4534    0.0000 C   0  0  0  0  0  0  0  0  0  0  0  0
    4.2589   -1.5675    0.0000 C   0  0  0  0  0  0  0  0  0  0  0  0
    8.4012   -4.1806    0.0000 C   0  0  0  0  0  0  0  0  0  0  0  0
    4.5004   -2.6252    0.0000 C   0  0  0  0  0  0  0  0  0  0  0  0
    8.6121   -0.4148    0.0000 C   0  0  0  0  0  0  0  0  0  0  0  0
    6.5877    0.5601    0.0000 C   0  0  0  0  0  0  0  0  0  0  0  0
    9.4817   -0.9882    0.0000 C   0  0  0  0  0  0  0  0  0  0  0  0
    5.5972    0.8825    0.0000 C   0  0  0  0  0  0  0  0  0  0  0  0
    9.4119   -2.0275    0.0000 C   0  0  0  0  0  0  0  0  0  0  0  0
    4.8282    0.1799    0.0000 C   0  0  0  0  0  0  0  0  0  0  0  0
   10.3776   -0.5440    0.0000 C   0  0  0  0  0  0  0  0  0  0  0  0
    5.3859    1.8599    0.0000 C   0  0  0  0  0  0  0  0  0  0  0  0
   11.2103   -1.0977    0.0000 C   0  0  0  0  0  0  0  0  0  0  0  0
    4.4338    2.1657    0.0000 C   0  0  0  0  0  0  0  0  0  0  0  0
   10.4408    0.4540    0.0000 C   0  0  0  0  0  0  0  0  0  0  0  0
    6.1268    2.5316    0.0000 C   0  0  0  0  0  0  0  0  0  0  0  0
   11.3367    0.8983    0.0000 C   0  0  0  0  0  0  0  0  0  0  0  0
    5.9156    3.5090    0.0000 C   0  0  0  0  0  0  0  0  0  0  0  0
   12.1062   -0.6534    0.0000 C   0  0  0  0  0  0  0  0  0  0  0  0
    4.2226    3.1431    0.0000 C   0  0  0  0  0  0  0  0  0  0  0  0
   12.1694    0.3446    0.0000 C   0  0  0  0  0  0  0  0  0  0  0  0
    4.9635    3.8148    0.0000 C   0  0  0  0  0  0  0  0  0  0  0  0
   11.3999    1.8963    0.0000 C   0  0  0  0  0  0  0  0  0  0  0  0
    6.6564    4.1806    0.0000 C   0  0  0  0  0  0  0  0  0  0  0  0
   11.9798   -2.6494    0.0000 C   0  0  0  0  0  0  0  0  0  0  0  0
    2.7409    1.7998    0.0000 C   0  0  0  0  0  0  0  0  0  0  0  0
   11.9166   -3.6474    0.0000 C   0  0  0  0  0  0  0  0  0  0  0  0
    2.0000    1.1282    0.0000 C   0  0  0  0  0  0  0  0  0  0  0  0
    6.5662   -2.3115    0.0000 H   0  0  0  0  0  0  0  0  0  0  0  0
    6.4526   -3.0850    0.0000 H   0  0  0  0  0  0  0  0  0  0  0  0
    6.6692   -2.7016    0.0000 H   0  0  0  0  0  0  0  0  0  0  0  0
    6.8897   -1.9344    0.0000 H   0  0  0  0  0  0  0  0  0  0  0  0
    6.7663   -4.0068    0.0000 H   0  0  0  0  0  0  0  0  0  0  0  0
    7.3461   -4.5411    0.0000 H   0  0  0  0  0  0  0  0  0  0  0  0
    5.2624   -3.4917    0.0000 H   0  0  0  0  0  0  0  0  0  0  0  0
    6.0386   -3.3050    0.0000 H   0  0  0  0  0  0  0  0  0  0  0  0
    9.3821   -3.8996    0.0000 H   0  0  0  0  0  0  0  0  0  0  0  0
    9.4592   -3.0972    0.0000 H   0  0  0  0  0  0  0  0  0  0  0  0
    3.9252   -1.0449    0.0000 H   0  0  0  0  0  0  0  0  0  0  0  0
    3.6870   -1.8068    0.0000 H   0  0  0  0  0  0  0  0  0  0  0  0
    8.1704   -4.7561    0.0000 H   0  0  0  0  0  0  0  0  0  0  0  0
    8.9408   -4.4858    0.0000 H   0  0  0  0  0  0  0  0  0  0  0  0
    3.8812   -2.6578    0.0000 H   0  0  0  0  0  0  0  0  0  0  0  0
    4.4264   -3.2408    0.0000 H   0  0  0  0  0  0  0  0  0  0  0  0
    9.9255   -2.3748    0.0000 H   0  0  0  0  0  0  0  0  0  0  0  0
    4.2364    0.3649    0.0000 H   0  0  0  0  0  0  0  0  0  0  0  0
    9.9245    0.7974    0.0000 H   0  0  0  0  0  0  0  0  0  0  0  0
    6.7171    2.3420    0.0000 H   0  0  0  0  0  0  0  0  0  0  0  0
    8.7481    2.6520    0.0000 H   0  0  0  0  0  0  0  0  0  0  0  0
   12.6225   -0.9967    0.0000 H   0  0  0  0  0  0  0  0  0  0  0  0
    3.6323    3.3327    0.0000 H   0  0  0  0  0  0  0  0  0  0  0  0
   12.7248    0.6200    0.0000 H   0  0  0  0  0  0  0  0  0  0  0  0
    4.8325    4.4208    0.0000 H   0  0  0  0  0  0  0  0  0  0  0  0
   12.0186    1.8571    0.0000 H   0  0  0  0  0  0  0  0  0  0  0  0
   11.4391    2.5151    0.0000 H   0  0  0  0  0  0  0  0  0  0  0  0
   10.7811    1.9355    0.0000 H   0  0  0  0  0  0  0  0  0  0  0  0
    7.0729    3.7213    0.0000 H   0  0  0  0  0  0  0  0  0  0  0  0
    7.1158    4.5971    0.0000 H   0  0  0  0  0  0  0  0  0  0  0  0
    6.2400    4.6400    0.0000 H   0  0  0  0  0  0  0  0  0  0  0  0
   12.5824   -2.7955    0.0000 H   0  0  0  0  0  0  0  0  0  0  0  0
   12.2282   -2.0814    0.0000 H   0  0  0  0  0  0  0  0  0  0  0  0
    3.0301    2.3482    0.0000 H   0  0  0  0  0  0  0  0  0  0  0  0
    2.2510    2.1799    0.0000 H   0  0  0  0  0  0  0  0  0  0  0  0
   11.2978   -3.6082    0.0000 H   0  0  0  0  0  0  0  0  0  0  0  0
   11.8774   -4.2662    0.0000 H   0  0  0  0  0  0  0  0  0  0  0  0
   12.5354   -3.6866    0.0000 H   0  0  0  0  0  0  0  0  0  0  0  0
    1.5836    1.5875    0.0000 H   0  0  0  0  0  0  0  0  0  0  0  0
    1.5407    0.7117    0.0000 H   0  0  0  0  0  0  0  0  0  0  0  0
    2.4164    0.6688    0.0000 H   0  0  0  0  0  0  0  0  0  0  0  0
  1  2  1  0  0  0  0
  1  3  1  0  0  0  0
  1  4  1  0  0  0  0
  1  5  2  0  0  0  0
  2 22  1  0  0  0  0
  3 23  1  0  0  0  0
  4 66  1  0  0  0  0
  6 30  1  0  0  0  0
  6 42  1  0  0  0  0
  7 31  1  0  0  0  0
  7 43  1  0  0  0  0
  8 10  2  0  0  0  0
  8 12  1  0  0  0  0
  8 14  1  0  0  0  0
  9 11  2  0  0  0  0
  9 13  1  0  0  0  0
  9 15  1  0  0  0  0
 10 11  1  0  0  0  0
 10 22  1  0  0  0  0
 11 23  1  0  0  0  0
 12 16  1  0  0  0  0
 12 46  1  0  0  0  0
 12 47  1  0  0  0  0
 13 17  1  0  0  0  0
 13 48  1  0  0  0  0
 13 49  1  0  0  0  0
 14 18  1  0  0  0  0
 14 26  2  0  0  0  0
 15 19  1  0  0  0  0
 15 27  2  0  0  0  0
 16 20  1  0  0  0  0
 16 50  1  0  0  0  0
 16 51  1  0  0  0  0
 17 21  1  0  0  0  0
 17 52  1  0  0  0  0
 17 53  1  0  0  0  0
 18 20  1  0  0  0  0
 18 54  1  0  0  0  0
 18 55  1  0  0  0  0
 19 21  1  0  0  0  0
 19 56  1  0  0  0  0
 19 57  1  0  0  0  0
 20 58  1  0  0  0  0
 20 59  1  0  0  0  0
 21 60  1  0  0  0  0
 21 61  1  0  0  0  0
 22 24  2  0  0  0  0
 23 25  2  0  0  0  0
 24 26  1  0  0  0  0
 24 28  1  0  0  0  0
 25 27  1  0  0  0  0
 25 29  1  0  0  0  0
 26 62  1  0  0  0  0
 27 63  1  0  0  0  0
 28 30  2  0  0  0  0
 28 32  1  0  0  0  0
 29 31  2  0  0  0  0
 29 33  1  0  0  0  0
 30 36  1  0  0  0  0
 31 37  1  0  0  0  0
 32 34  2  0  0  0  0
 32 64  1  0  0  0  0
 33 35  2  0  0  0  0
 33 65  1  0  0  0  0
 34 38  1  0  0  0  0
 34 40  1  0  0  0  0
 35 39  1  0  0  0  0
 35 41  1  0  0  0  0
 36 38  2  0  0  0  0
 36 67  1  0  0  0  0
 37 39  2  0  0  0  0
 37 68  1  0  0  0  0
 38 69  1  0  0  0  0
 39 70  1  0  0  0  0
 40 71  1  0  0  0  0
 40 72  1  0  0  0  0
 40 73  1  0  0  0  0
 41 74  1  0  0  0  0
 41 75  1  0  0  0  0
 41 76  1  0  0  0  0
 42 44  1  0  0  0  0
 42 77  1  0  0  0  0
 42 78  1  0  0  0  0
 43 45  1  0  0  0  0
 43 79  1  0  0  0  0
 43 80  1  0  0  0  0
 44 81  1  0  0  0  0
 44 82  1  0  0  0  0
 44 83  1  0  0  0  0
 45 84  1  0  0  0  0
 45 85  1  0  0  0  0
 45 86  1  0  0  0  0
M  END
> <PUBCHEM_COMPOUND_CID>
154996183

> <PUBCHEM_COMPOUND_CANONICALIZED>
1

> <PUBCHEM_CACTVS_COMPLEXITY>
962

> <PUBCHEM_CACTVS_HBOND_ACCEPTOR>
6

> <PUBCHEM_CACTVS_HBOND_DONOR>
1

> <PUBCHEM_CACTVS_ROTATABLE_BOND>
6

> <PUBCHEM_CACTVS_SUBSKEYS>
AAADcfB8OAIAAAAAAAAAAAAAAAAAAAAAAAAwYMGDBIAAAADBVAAAGgAACCAADASgmAIyBoAABRCAQiBCAIACCAAgIAAIiAAGCIgMJiKEMRqCOCCkwBEIqAfAwPAO4AADAAAYAADAAAYAADAAAAAAAAAAAA==

> <PUBCHEM_IUPAC_OPENEYE_NAME>
10,16-bis(2-ethoxy-5-methyl-phenyl)-13-hydroxy-12,14-dioxa-13lambda5-phosphapentacyclo[13.8.0.02,11.03,8.018,23]tricosa-1(23),2,8,10,15,17-hexaene 13-oxide

> <PUBCHEM_IUPAC_CAS_NAME>
10,16-bis(2-ethoxy-5-methylphenyl)-13-hydroxy-12,14-dioxa-13lambda5-phosphapentacyclo[13.8.0.02,11.03,8.018,23]tricosa-1(23),2,8,10,15,17-hexaene 13-oxide

> <PUBCHEM_IUPAC_NAME_MARKUP>
10,16-bis(2-ethoxy-5-methylphenyl)-13-hydroxy-12,14-dioxa-13&lambda;<SUP>5</SUP>-phosphapentacyclo[13.8.0.0<SUP>2,11</SUP>.0<SUP>3,8</SUP>.0<SUP>18,23</SUP>]tricosa-1(23),2,8,10,15,17-hexaene 13-oxide

> <PUBCHEM_IUPAC_NAME>
10,16-bis(2-ethoxy-5-methylphenyl)-13-hydroxy-12,14-dioxa-13lambda5-phosphapentacyclo[13.8.0.02,11.03,8.018,23]tricosa-1(23),2,8,10,15,17-hexaene 13-oxide

> <PUBCHEM_IUPAC_SYSTEMATIC_NAME>
10,16-bis(2-ethoxy-5-methyl-phenyl)-13-oxidanyl-12,14-dioxa-13lambda5-phosphapentacyclo[13.8.0.02,11.03,8.018,23]tricosa-1(23),2,8,10,15,17-hexaene 13-oxide

> <PUBCHEM_IUPAC_TRADITIONAL_NAME>
10,16-bis(2-ethoxy-5-methyl-phenyl)-13-hydroxy-12,14-dioxa-13lambda5-phosphapentacyclo[13.8.0.02,11.03,8.018,23]tricosa-1(23),2,8,10,15,17-hexaene 13-oxide

> <PUBCHEM_IUPAC_INCHI>
InChI=1S/C38H41O6P/c1-5-41-33-17-15-23(3)19-29(33)31-21-25-11-7-9-13-27(25)35-36-28-14-10-8-12-26(28)22-32(38(36)44-45(39,40)43-37(31)35)30-20-24(4)16-18-34(30)42-6-2/h15-22H,5-14H2,1-4H3,(H,39,40)

> <PUBCHEM_IUPAC_INCHIKEY>
IKYPRECMYHRFGL-UHFFFAOYSA-N

> <PUBCHEM_XLOGP3_AA>
9.7

> <PUBCHEM_EXACT_MASS>
624.264076

> <PUBCHEM_MOLECULAR_FORMULA>
C38H41O6P

> <PUBCHEM_MOLECULAR_WEIGHT>
624.7

> <PUBCHEM_OPENEYE_CAN_SMILES>
CCOC1=C(C=C(C=C1)C)C2=C3C(=C4CCCCC4=C2)C5=C6CCCCC6=CC(=C5OP(=O)(O3)O)C7=C(C=CC(=C7)C)OCC

> <PUBCHEM_OPENEYE_ISO_SMILES>
CCOC1=C(C=C(C=C1)C)C2=C3C(=C4CCCCC4=C2)C5=C6CCCCC6=CC(=C5OP(=O)(O3)O)C7=C(C=CC(=C7)C)OCC

> <PUBCHEM_CACTVS_TPSA>
74.2

> <PUBCHEM_MONOISOTOPIC_WEIGHT>
624.264076

> <PUBCHEM_TOTAL_CHARGE>
0

> <PUBCHEM_HEAVY_ATOM_COUNT>
45

> <PUBCHEM_ATOM_DEF_STEREO_COUNT>
0

> <PUBCHEM_ATOM_UDEF_STEREO_COUNT>
0

> <PUBCHEM_BOND_DEF_STEREO_COUNT>
0

> <PUBCHEM_BOND_UDEF_STEREO_COUNT>
0

> <PUBCHEM_ISOTOPIC_ATOM_COUNT>
0

> <PUBCHEM_COMPONENT_COUNT>
1

> <PUBCHEM_CACTVS_TAUTO_COUNT>
-1

> <PUBCHEM_COORDINATE_TYPE>
1
5
255

> <PUBCHEM_BONDANNOTATIONS>
10  22  8
11  23  8
14  26  8
15  27  8
22  24  8
23  25  8
24  26  8
25  27  8
28  30  8
28  32  8
29  31  8
29  33  8
30  36  8
31  37  8
32  34  8
33  35  8
34  38  8
35  39  8
36  38  8
37  39  8
8  10  8
8  14  8
9  11  8
9  15  8

$$$$
