23110717
  -OEChem-04302101553D

 64 70  0     0  0  0  0  0  0999 V2000
   -0.0324    1.9781    0.0687 P   0  0  0  0  0  0  0  0  0  0  0  0
    1.0494    1.0064    0.7959 O   0  0  0  0  0  0  0  0  0  0  0  0
   -1.0272    1.0035   -0.7686 O   0  0  0  0  0  0  0  0  0  0  0  0
    0.8319    2.7045   -1.0919 O   0  0  0  0  0  0  0  0  0  0  0  0
   -0.7195    2.9297    1.0060 O   0  0  0  0  0  0  0  0  0  0  0  0
    0.6996   -1.1510   -0.2351 C   0  0  0  0  0  0  0  0  0  0  0  0
   -0.7123   -1.1523    0.2462 C   0  0  0  0  0  0  0  0  0  0  0  0
    1.5455   -0.0821    0.1222 C   0  0  0  0  0  0  0  0  0  0  0  0
   -1.5532   -0.0820   -0.1148 C   0  0  0  0  0  0  0  0  0  0  0  0
    1.2331   -2.1779   -1.0765 C   0  0  0  0  0  0  0  0  0  0  0  0
   -1.2534   -2.1786    1.0812 C   0  0  0  0  0  0  0  0  0  0  0  0
    2.8964   -0.0652   -0.2017 C   0  0  0  0  0  0  0  0  0  0  0  0
   -2.9048   -0.0556    0.2014 C   0  0  0  0  0  0  0  0  0  0  0  0
    2.6145   -2.1482   -1.4126 C   0  0  0  0  0  0  0  0  0  0  0  0
   -2.6368   -2.1438    1.4093 C   0  0  0  0  0  0  0  0  0  0  0  0
    3.4287   -1.1041   -0.9533 C   0  0  0  0  0  0  0  0  0  0  0  0
   -3.4447   -1.0947    0.9477 C   0  0  0  0  0  0  0  0  0  0  0  0
    3.7635    1.0207    0.2120 C   0  0  0  0  0  0  0  0  0  0  0  0
   -3.7608    1.0379   -0.2129 C   0  0  0  0  0  0  0  0  0  0  0  0
    0.4613   -3.2325   -1.6247 C   0  0  0  0  0  0  0  0  0  0  0  0
   -0.4878   -3.2370    1.6297 C   0  0  0  0  0  0  0  0  0  0  0  0
    3.1702   -3.1579   -2.2160 C   0  0  0  0  0  0  0  0  0  0  0  0
   -3.2001   -3.1534    2.2073 C   0  0  0  0  0  0  0  0  0  0  0  0
    1.0278   -4.2252   -2.4271 C   0  0  0  0  0  0  0  0  0  0  0  0
   -1.0624   -4.2296    2.4266 C   0  0  0  0  0  0  0  0  0  0  0  0
    2.3836   -4.1916   -2.7168 C   0  0  0  0  0  0  0  0  0  0  0  0
   -2.4196   -4.1913    2.7095 C   0  0  0  0  0  0  0  0  0  0  0  0
    4.4164    1.7957   -0.7467 C   0  0  0  0  0  0  0  0  0  0  0  0
   -4.4118    1.8152    0.7451 C   0  0  0  0  0  0  0  0  0  0  0  0
    3.9448    1.2907    1.5686 C   0  0  0  0  0  0  0  0  0  0  0  0
   -3.9335    1.3132   -1.5694 C   0  0  0  0  0  0  0  0  0  0  0  0
    5.2505    2.8405   -0.3490 C   0  0  0  0  0  0  0  0  0  0  0  0
   -5.2357    2.8677    0.3467 C   0  0  0  0  0  0  0  0  0  0  0  0
    4.7790    2.3355    1.9662 C   0  0  0  0  0  0  0  0  0  0  0  0
   -4.7576    2.3659   -1.9679 C   0  0  0  0  0  0  0  0  0  0  0  0
    5.4319    3.1103    1.0074 C   0  0  0  0  0  0  0  0  0  0  0  0
   -5.4087    3.1431   -1.0098 C   0  0  0  0  0  0  0  0  0  0  0  0
    6.3240    4.2270    1.4329 C   0  0  0  0  0  0  0  0  0  0  0  0
   -6.2897    4.2681   -1.4360 C   0  0  0  0  0  0  0  0  0  0  0  0
    4.4881   -1.1011   -1.2096 H   0  0  0  0  0  0  0  0  0  0  0  0
   -4.5053   -1.0876    1.1991 H   0  0  0  0  0  0  0  0  0  0  0  0
   -0.6090   -3.2950   -1.4420 H   0  0  0  0  0  0  0  0  0  0  0  0
    0.5831   -3.3027    1.4514 H   0  0  0  0  0  0  0  0  0  0  0  0
    4.2289   -3.1437   -2.4689 H   0  0  0  0  0  0  0  0  0  0  0  0
   -4.2601   -3.1361    2.4547 H   0  0  0  0  0  0  0  0  0  0  0  0
    0.4051   -5.0208   -2.8255 H   0  0  0  0  0  0  0  0  0  0  0  0
   -0.4449   -5.0287    2.8260 H   0  0  0  0  0  0  0  0  0  0  0  0
    2.8284   -4.9618   -3.3397 H   0  0  0  0  0  0  0  0  0  0  0  0
   -2.8703   -4.9613    3.3282 H   0  0  0  0  0  0  0  0  0  0  0  0
    4.2829    1.6074   -1.8094 H   0  0  0  0  0  0  0  0  0  0  0  0
   -4.2848    1.6225    1.8079 H   0  0  0  0  0  0  0  0  0  0  0  0
    3.4524    0.6939    2.3329 H   0  0  0  0  0  0  0  0  0  0  0  0
   -3.4418    0.7150   -2.3331 H   0  0  0  0  0  0  0  0  0  0  0  0
    5.7510    3.4393   -1.1054 H   0  0  0  0  0  0  0  0  0  0  0  0
   -5.7348    3.4682    1.1025 H   0  0  0  0  0  0  0  0  0  0  0  0
    4.9124    2.5361    3.0260 H   0  0  0  0  0  0  0  0  0  0  0  0
   -4.8843    2.5708   -3.0277 H   0  0  0  0  0  0  0  0  0  0  0  0
    0.4469    3.4790   -1.5545 H   0  0  0  0  0  0  0  0  0  0  0  0
    5.7491    5.1542    1.5212 H   0  0  0  0  0  0  0  0  0  0  0  0
    6.7935    4.0117    2.3988 H   0  0  0  0  0  0  0  0  0  0  0  0
    7.1333    4.3833    0.7115 H   0  0  0  0  0  0  0  0  0  0  0  0
   -5.7069    5.1908   -1.5194 H   0  0  0  0  0  0  0  0  0  0  0  0
   -6.7569    4.0592   -2.4044 H   0  0  0  0  0  0  0  0  0  0  0  0
   -7.1007    4.4292   -0.7176 H   0  0  0  0  0  0  0  0  0  0  0  0
  1  2  1  0  0  0  0
  1  3  1  0  0  0  0
  1  4  1  0  0  0  0
  1  5  2  0  0  0  0
  2  8  1  0  0  0  0
  3  9  1  0  0  0  0
  4 58  1  0  0  0  0
  6  7  1  0  0  0  0
  6  8  2  0  0  0  0
  6 10  1  0  0  0  0
  7  9  2  0  0  0  0
  7 11  1  0  0  0  0
  8 12  1  0  0  0  0
  9 13  1  0  0  0  0
 10 14  1  0  0  0  0
 10 20  2  0  0  0  0
 11 15  1  0  0  0  0
 11 21  2  0  0  0  0
 12 16  2  0  0  0  0
 12 18  1  0  0  0  0
 13 17  2  0  0  0  0
 13 19  1  0  0  0  0
 14 16  1  0  0  0  0
 14 22  2  0  0  0  0
 15 17  1  0  0  0  0
 15 23  2  0  0  0  0
 16 40  1  0  0  0  0
 17 41  1  0  0  0  0
 18 28  2  0  0  0  0
 18 30  1  0  0  0  0
 19 29  2  0  0  0  0
 19 31  1  0  0  0  0
 20 24  1  0  0  0  0
 20 42  1  0  0  0  0
 21 25  1  0  0  0  0
 21 43  1  0  0  0  0
 22 26  1  0  0  0  0
 22 44  1  0  0  0  0
 23 27  1  0  0  0  0
 23 45  1  0  0  0  0
 24 26  2  0  0  0  0
 24 46  1  0  0  0  0
 25 27  2  0  0  0  0
 25 47  1  0  0  0  0
 26 48  1  0  0  0  0
 27 49  1  0  0  0  0
 28 32  1  0  0  0  0
 28 50  1  0  0  0  0
 29 33  1  0  0  0  0
 29 51  1  0  0  0  0
 30 34  2  0  0  0  0
 30 52  1  0  0  0  0
 31 35  2  0  0  0  0
 31 53  1  0  0  0  0
 32 36  2  0  0  0  0
 32 54  1  0  0  0  0
 33 37  2  0  0  0  0
 33 55  1  0  0  0  0
 34 36  1  0  0  0  0
 34 56  1  0  0  0  0
 35 37  1  0  0  0  0
 35 57  1  0  0  0  0
 36 38  1  0  0  0  0
 37 39  1  0  0  0  0
 38 59  1  0  0  0  0
 38 60  1  0  0  0  0
 38 61  1  0  0  0  0
 39 62  1  0  0  0  0
 39 63  1  0  0  0  0
 39 64  1  0  0  0  0
M  END
> <PUBCHEM_COMPOUND_CID>
23110717

> <PUBCHEM_CONFORMER_RMSD>
0.8

> <PUBCHEM_CONFORMER_DIVERSEORDER>
1
2

> <PUBCHEM_MMFF94_PARTIAL_CHARGES>
48
1 1.51
16 -0.15
17 -0.15
2 -0.35
20 -0.15
21 -0.15
22 -0.15
23 -0.15
24 -0.15
25 -0.15
26 -0.15
27 -0.15
28 -0.15
29 -0.15
3 -0.35
30 -0.15
31 -0.15
32 -0.15
33 -0.15
34 -0.15
35 -0.15
36 -0.14
37 -0.14
38 0.14
39 0.14
4 -0.77
40 0.15
41 0.15
42 0.15
43 0.15
44 0.15
45 0.15
46 0.15
47 0.15
48 0.15
49 0.15
5 -0.7
50 0.15
51 0.15
52 0.15
53 0.15
54 0.15
55 0.15
56 0.15
57 0.15
58 0.5
8 0.08
9 0.08

> <PUBCHEM_EFFECTIVE_ROTOR_COUNT>
2.4

> <PUBCHEM_PHARMACOPHORE_FEATURES>
9
1 4 acceptor
1 5 acceptor
6 10 14 20 22 24 26 rings
6 11 15 21 23 25 27 rings
6 18 28 30 32 34 36 rings
6 19 29 31 33 35 37 rings
6 6 8 10 12 14 16 rings
6 7 9 11 13 15 17 rings
7 1 2 3 6 7 8 9 rings

> <PUBCHEM_HEAVY_ATOM_COUNT>
39

> <PUBCHEM_ATOM_DEF_STEREO_COUNT>
0

> <PUBCHEM_ATOM_UDEF_STEREO_COUNT>
0

> <PUBCHEM_BOND_DEF_STEREO_COUNT>
0

> <PUBCHEM_BOND_UDEF_STEREO_COUNT>
0

> <PUBCHEM_ISOTOPIC_ATOM_COUNT>
0

> <PUBCHEM_COMPONENT_COUNT>
1

> <PUBCHEM_CACTVS_TAUTO_COUNT>
1

> <PUBCHEM_CONFORMER_ID>
0160A43D00000001

> <PUBCHEM_MMFF94_ENERGY>
135.9068

> <PUBCHEM_FEATURE_SELFOVERLAP>
45.768

> <PUBCHEM_SHAPE_FINGERPRINT>
10258939 38 18118694446104014027
10290309 65 18128265669755112692
10305334 12 18042102363276113330
10675989 125 18120929504351696793
11115154 58 17340133242966638876
11297750 10 17977145415020197291
11720765 8 17766275379981251350
12440610 7 18334019389004774143
12597179 24 18410570686622050433
13540713 4 18338814358765150694
13726171 33 18117578420691474588
140371 6 18338530684807837260
14725015 67 17973718074240761172
14747281 78 17984450471579674525
14856354 85 17464822664157991330
15324884 4 18269575960281353294
15351339 4 17106232987634271010
15775530 1 18268731444998587290
17980427 26 18046322177424323367
19246450 95 17319814363202782880
19304152 47 17904478851212673248
19309040 13 17988935439945272301
20642791 13 18335706104593371507
21033648 29 18187368680081869389
21987440 362 16086395352551165341
22182313 1 18197799862715831038
22223350 30 18041571234503805179
23559900 14 18269000795472421582
25223398 141 17388854944483573107
27425 322 18266734685191352815
376196 1 18411693266519270726
4015057 19 17912098156796600743
4144715 1 18115027536724160344
4403749 210 18126835230687047704
469060 322 17695632140006872879
550186 7 18191030212441574274
56638632 10 17415289604442896633
5951187 136 18194109720840015155
6086070 43 17328856600784724453
6371380 46 18189616034371846626
70251023 43 17625816072683990583
7399639 24 18126023769045323803
9658208 31 18042704814244520267
9849439 229 18187356585485365681
9981440 41 18201146754377494986

> <PUBCHEM_SHAPE_MULTIPOLES>
782.97
12.1
7.12
2.52
0.2
2.45
0.02
-20.02
-0.04
-0.15
0.01
0
3.04
7.97

> <PUBCHEM_SHAPE_SELFOVERLAP>
1778.023

> <PUBCHEM_SHAPE_VOLUME>
409.1

> <PUBCHEM_COORDINATE_TYPE>
2
5
10

$$$$
