24894958
  -OEChem-04302101573D

 82 88  0     0  0  0  0  0  0999 V2000
    0.0296   -1.3520    0.0731 P   0  0  0  0  0  0  0  0  0  0  0  0
   -1.1215   -0.3812    0.6867 O   0  0  0  0  0  0  0  0  0  0  0  0
    1.1025   -0.3764   -0.6602 O   0  0  0  0  0  0  0  0  0  0  0  0
   -0.7122   -2.0803   -1.1682 O   0  0  0  0  0  0  0  0  0  0  0  0
    0.6198   -2.3020    1.0757 O   0  0  0  0  0  0  0  0  0  0  0  0
   -0.6720    1.7760   -0.3053 C   0  0  0  0  0  0  0  0  0  0  0  0
    0.6840    1.7795    0.3161 C   0  0  0  0  0  0  0  0  0  0  0  0
   -6.4325   -3.6054    0.7917 C   0  0  0  0  0  0  0  0  0  0  0  0
    6.4133   -3.6310   -0.7920 C   0  0  0  0  0  0  0  0  0  0  0  0
   -1.5483    0.7063   -0.0345 C   0  0  0  0  0  0  0  0  0  0  0  0
    1.5584    0.7101    0.0426 C   0  0  0  0  0  0  0  0  0  0  0  0
   -2.8596    0.6871   -0.4932 C   0  0  0  0  0  0  0  0  0  0  0  0
    2.8712    0.6858    0.4936 C   0  0  0  0  0  0  0  0  0  0  0  0
   -1.1191    2.8017   -1.1970 C   0  0  0  0  0  0  0  0  0  0  0  0
    1.1366    2.8070    1.2006 C   0  0  0  0  0  0  0  0  0  0  0  0
   -5.5021   -2.4892    0.4569 C   0  0  0  0  0  0  0  0  0  0  0  0
    5.4908   -2.5082   -0.4570 C   0  0  0  0  0  0  0  0  0  0  0  0
   -2.4596    2.7699   -1.6708 C   0  0  0  0  0  0  0  0  0  0  0  0
    2.4800    2.7742    1.6668 C   0  0  0  0  0  0  0  0  0  0  0  0
   -3.7626   -0.3997   -0.1683 C   0  0  0  0  0  0  0  0  0  0  0  0
    3.7661   -0.4068    0.1688 C   0  0  0  0  0  0  0  0  0  0  0  0
   -3.3146    1.7249   -1.2954 C   0  0  0  0  0  0  0  0  0  0  0  0
    3.3317    1.7259    1.2899 C   0  0  0  0  0  0  0  0  0  0  0  0
   -5.8798   -4.9738    0.2852 C   0  0  0  0  0  0  0  0  0  0  0  0
   -7.8321   -3.3918    0.1359 C   0  0  0  0  0  0  0  0  0  0  0  0
   -6.7149   -3.8098    2.3173 C   0  0  0  0  0  0  0  0  0  0  0  0
    5.8553   -4.9943   -0.2780 C   0  0  0  0  0  0  0  0  0  0  0  0
    7.8171   -3.4230   -0.1435 C   0  0  0  0  0  0  0  0  0  0  0  0
    6.6874   -3.8424   -2.3182 C   0  0  0  0  0  0  0  0  0  0  0  0
   -5.1843   -2.2211   -0.8746 C   0  0  0  0  0  0  0  0  0  0  0  0
    5.1807   -2.2336    0.8750 C   0  0  0  0  0  0  0  0  0  0  0  0
   -4.9502   -1.7126    1.4758 C   0  0  0  0  0  0  0  0  0  0  0  0
    4.9385   -1.7323   -1.4761 C   0  0  0  0  0  0  0  0  0  0  0  0
   -4.3146   -1.1763   -1.1871 C   0  0  0  0  0  0  0  0  0  0  0  0
    4.3184   -1.1828    1.1878 C   0  0  0  0  0  0  0  0  0  0  0  0
   -4.0805   -0.6680    1.1632 C   0  0  0  0  0  0  0  0  0  0  0  0
    4.0762   -0.6816   -1.1632 C   0  0  0  0  0  0  0  0  0  0  0  0
   -0.2975    3.8570   -1.6653 C   0  0  0  0  0  0  0  0  0  0  0  0
    0.3183    3.8648    1.6683 C   0  0  0  0  0  0  0  0  0  0  0  0
   -2.9326    3.7784   -2.5270 C   0  0  0  0  0  0  0  0  0  0  0  0
    2.9585    3.7851    2.5169 C   0  0  0  0  0  0  0  0  0  0  0  0
   -0.7813    4.8484   -2.5216 C   0  0  0  0  0  0  0  0  0  0  0  0
    0.8082    4.8585    2.5184 C   0  0  0  0  0  0  0  0  0  0  0  0
   -2.1008    4.8129   -2.9466 C   0  0  0  0  0  0  0  0  0  0  0  0
    2.1300    4.8223    2.9369 C   0  0  0  0  0  0  0  0  0  0  0  0
   -4.3427    1.7203   -1.6574 H   0  0  0  0  0  0  0  0  0  0  0  0
    4.3615    1.7203    1.6472 H   0  0  0  0  0  0  0  0  0  0  0  0
   -6.5489   -5.7989    0.5557 H   0  0  0  0  0  0  0  0  0  0  0  0
   -5.7687   -4.9921   -0.8045 H   0  0  0  0  0  0  0  0  0  0  0  0
   -4.8956   -5.1815    0.7214 H   0  0  0  0  0  0  0  0  0  0  0  0
   -8.5255   -4.1972    0.4046 H   0  0  0  0  0  0  0  0  0  0  0  0
   -8.2745   -2.4434    0.4630 H   0  0  0  0  0  0  0  0  0  0  0  0
   -7.7723   -3.3686   -0.9578 H   0  0  0  0  0  0  0  0  0  0  0  0
   -7.4051   -4.6461    2.4825 H   0  0  0  0  0  0  0  0  0  0  0  0
   -5.7957   -4.0398    2.8687 H   0  0  0  0  0  0  0  0  0  0  0  0
   -7.1765   -2.9210    2.7630 H   0  0  0  0  0  0  0  0  0  0  0  0
    6.5184   -5.8242   -0.5486 H   0  0  0  0  0  0  0  0  0  0  0  0
    5.7492   -5.0081    0.8123 H   0  0  0  0  0  0  0  0  0  0  0  0
    4.8678   -5.1980   -0.7088 H   0  0  0  0  0  0  0  0  0  0  0  0
    8.5047   -4.2332   -0.4125 H   0  0  0  0  0  0  0  0  0  0  0  0
    8.2633   -2.4783   -0.4762 H   0  0  0  0  0  0  0  0  0  0  0  0
    7.7625   -3.3954    0.9502 H   0  0  0  0  0  0  0  0  0  0  0  0
    7.3721   -4.6831   -2.4836 H   0  0  0  0  0  0  0  0  0  0  0  0
    5.7644   -4.0692   -2.8644 H   0  0  0  0  0  0  0  0  0  0  0  0
    7.1520   -2.9578   -2.7692 H   0  0  0  0  0  0  0  0  0  0  0  0
   -5.5985   -2.8108   -1.6873 H   0  0  0  0  0  0  0  0  0  0  0  0
    5.5953   -2.8227    1.6879 H   0  0  0  0  0  0  0  0  0  0  0  0
   -5.1643   -1.8758    2.5261 H   0  0  0  0  0  0  0  0  0  0  0  0
    5.1466   -1.9006   -2.5268 H   0  0  0  0  0  0  0  0  0  0  0  0
   -4.0744   -0.9886   -2.2311 H   0  0  0  0  0  0  0  0  0  0  0  0
    4.0843   -0.9899    2.2322 H   0  0  0  0  0  0  0  0  0  0  0  0
   -3.6684   -0.0690    1.9721 H   0  0  0  0  0  0  0  0  0  0  0  0
    3.6632   -0.0835   -1.9722 H   0  0  0  0  0  0  0  0  0  0  0  0
    0.7490    3.9211   -1.3756 H   0  0  0  0  0  0  0  0  0  0  0  0
   -0.7292    3.9288    1.3827 H   0  0  0  0  0  0  0  0  0  0  0  0
   -3.9604    3.7627   -2.8855 H   0  0  0  0  0  0  0  0  0  0  0  0
    3.9880    3.7694    2.8702 H   0  0  0  0  0  0  0  0  0  0  0  0
   -0.1225    5.6446   -2.8557 H   0  0  0  0  0  0  0  0  0  0  0  0
    0.1525    5.6571    2.8528 H   0  0  0  0  0  0  0  0  0  0  0  0
   -2.4813    5.5820   -3.6118 H   0  0  0  0  0  0  0  0  0  0  0  0
    2.5150    5.5934    3.5973 H   0  0  0  0  0  0  0  0  0  0  0  0
   -0.2814   -2.8545   -1.5890 H   0  0  0  0  0  0  0  0  0  0  0  0
  1  2  1  0  0  0  0
  1  3  1  0  0  0  0
  1  4  1  0  0  0  0
  1  5  2  0  0  0  0
  2 10  1  0  0  0  0
  3 11  1  0  0  0  0
  4 82  1  0  0  0  0
  6  7  1  0  0  0  0
  6 10  2  0  0  0  0
  6 14  1  0  0  0  0
  7 11  2  0  0  0  0
  7 15  1  0  0  0  0
  8 16  1  0  0  0  0
  8 24  1  0  0  0  0
  8 25  1  0  0  0  0
  8 26  1  0  0  0  0
  9 17  1  0  0  0  0
  9 27  1  0  0  0  0
  9 28  1  0  0  0  0
  9 29  1  0  0  0  0
 10 12  1  0  0  0  0
 11 13  1  0  0  0  0
 12 20  1  0  0  0  0
 12 22  2  0  0  0  0
 13 21  1  0  0  0  0
 13 23  2  0  0  0  0
 14 18  1  0  0  0  0
 14 38  2  0  0  0  0
 15 19  1  0  0  0  0
 15 39  2  0  0  0  0
 16 30  2  0  0  0  0
 16 32  1  0  0  0  0
 17 31  2  0  0  0  0
 17 33  1  0  0  0  0
 18 22  1  0  0  0  0
 18 40  2  0  0  0  0
 19 23  1  0  0  0  0
 19 41  2  0  0  0  0
 20 34  2  0  0  0  0
 20 36  1  0  0  0  0
 21 35  2  0  0  0  0
 21 37  1  0  0  0  0
 22 46  1  0  0  0  0
 23 47  1  0  0  0  0
 24 48  1  0  0  0  0
 24 49  1  0  0  0  0
 24 50  1  0  0  0  0
 25 51  1  0  0  0  0
 25 52  1  0  0  0  0
 25 53  1  0  0  0  0
 26 54  1  0  0  0  0
 26 55  1  0  0  0  0
 26 56  1  0  0  0  0
 27 57  1  0  0  0  0
 27 58  1  0  0  0  0
 27 59  1  0  0  0  0
 28 60  1  0  0  0  0
 28 61  1  0  0  0  0
 28 62  1  0  0  0  0
 29 63  1  0  0  0  0
 29 64  1  0  0  0  0
 29 65  1  0  0  0  0
 30 34  1  0  0  0  0
 30 66  1  0  0  0  0
 31 35  1  0  0  0  0
 31 67  1  0  0  0  0
 32 36  2  0  0  0  0
 32 68  1  0  0  0  0
 33 37  2  0  0  0  0
 33 69  1  0  0  0  0
 34 70  1  0  0  0  0
 35 71  1  0  0  0  0
 36 72  1  0  0  0  0
 37 73  1  0  0  0  0
 38 42  1  0  0  0  0
 38 74  1  0  0  0  0
 39 43  1  0  0  0  0
 39 75  1  0  0  0  0
 40 44  1  0  0  0  0
 40 76  1  0  0  0  0
 41 45  1  0  0  0  0
 41 77  1  0  0  0  0
 42 44  2  0  0  0  0
 42 78  1  0  0  0  0
 43 45  2  0  0  0  0
 43 79  1  0  0  0  0
 44 80  1  0  0  0  0
 45 81  1  0  0  0  0
M  END
> <PUBCHEM_COMPOUND_CID>
24894958

> <PUBCHEM_CONFORMER_RMSD>
1

> <PUBCHEM_CONFORMER_DIVERSEORDER>
1
3
8
4
6
2
7
5

> <PUBCHEM_MMFF94_PARTIAL_CHARGES>
48
1 1.51
10 0.08
11 0.08
16 -0.14
17 -0.14
2 -0.35
22 -0.15
23 -0.15
3 -0.35
30 -0.15
31 -0.15
32 -0.15
33 -0.15
34 -0.15
35 -0.15
36 -0.15
37 -0.15
38 -0.15
39 -0.15
4 -0.77
40 -0.15
41 -0.15
42 -0.15
43 -0.15
44 -0.15
45 -0.15
46 0.15
47 0.15
5 -0.7
66 0.15
67 0.15
68 0.15
69 0.15
70 0.15
71 0.15
72 0.15
73 0.15
74 0.15
75 0.15
76 0.15
77 0.15
78 0.15
79 0.15
8 0.14
80 0.15
81 0.15
82 0.5
9 0.14

> <PUBCHEM_EFFECTIVE_ROTOR_COUNT>
4.4

> <PUBCHEM_PHARMACOPHORE_FEATURES>
11
1 4 acceptor
1 5 acceptor
4 8 24 25 26 hydrophobe
4 9 27 28 29 hydrophobe
6 14 18 38 40 42 44 rings
6 15 19 39 41 43 45 rings
6 16 20 30 32 34 36 rings
6 17 21 31 33 35 37 rings
6 6 10 12 14 18 22 rings
6 7 11 13 15 19 23 rings
7 1 2 3 6 7 10 11 rings

> <PUBCHEM_HEAVY_ATOM_COUNT>
45

> <PUBCHEM_ATOM_DEF_STEREO_COUNT>
0

> <PUBCHEM_ATOM_UDEF_STEREO_COUNT>
0

> <PUBCHEM_BOND_DEF_STEREO_COUNT>
0

> <PUBCHEM_BOND_UDEF_STEREO_COUNT>
0

> <PUBCHEM_ISOTOPIC_ATOM_COUNT>
0

> <PUBCHEM_COMPONENT_COUNT>
1

> <PUBCHEM_CACTVS_TAUTO_COUNT>
1

> <PUBCHEM_CONFORMER_ID>
017BDDEE00000001

> <PUBCHEM_MMFF94_ENERGY>
171.2963

> <PUBCHEM_FEATURE_SELFOVERLAP>
55.917

> <PUBCHEM_SHAPE_FINGERPRINT>
10165383 225 17765712812412639304
11093857 51 17686347872564568772
11227688 84 18336535054635504431
11297750 10 18410571799013110476
11445158 3 17775000227890410700
117089 54 18410864243469222782
12342043 65 18411695504255039961
12623949 98 18269557315469222181
12633046 712 18343016662253087628
131258 43 18041580120991068350
13540713 4 18338497699416637037
13690498 29 18262520286448639582
13782708 43 18410576184180572587
13785724 45 18261114136368983951
15324884 4 18191559013200098845
15448158 91 18340188774454633998
15530120 55 17605863342887305854
15911013 46 18197505223511669835
18393751 57 17550371282321249401
1979834 28 17904474461413965185
20609170 17 18410582781250586095
21049683 271 18339368590736931404
21130935 74 18126289886226591923
21639891 77 18341047394072110356
21796203 349 17203323408679313600
2260408 40 18123755515965775473
23536364 44 17767388098992567780
24771750 20 16885559290600631317
255183 451 18262805180556902015
32027 91 18342173423287459879
4408954 64 17700729287255441449
4461854 278 16897087734553115370
484985 159 18053952744591426872
49967989 163 17909272382634032782
57816373 69 18270965760253975519
6695519 79 17266345408759376961
6698420 124 17837486358571901729
86090 222 17969216905475580651
9831232 110 17971188382086657915

> <PUBCHEM_SHAPE_MULTIPOLES>
906.45
16.84
8.95
2.59
0.28
3.1
0.02
-37.36
-0.04
-0.18
0
0
3.96
8.55

> <PUBCHEM_SHAPE_SELFOVERLAP>
2026.937

> <PUBCHEM_SHAPE_VOLUME>
484.4

> <PUBCHEM_COORDINATE_TYPE>
2
5
10

$$$$
