154996161
  -OEChem-04292123232D

 90100  0     0  0  0  0  0  0999 V2000
    6.4362   -0.4166    0.0000 P   0  0  0  0  0  0  0  0  0  0  0  0
    7.0597   -1.1984    0.0000 O   0  0  0  0  0  0  0  0  0  0  0  0
    5.4362   -0.4166    0.0000 O   0  0  0  0  0  0  0  0  0  0  0  0
    7.2180    0.2069    0.0000 O   0  0  0  0  0  0  0  0  0  0  0  0
    6.4362    0.5834    0.0000 O   0  0  0  0  0  0  0  0  0  0  0  0
    5.9362   -2.6072    0.0000 C   0  0  0  0  0  0  0  0  0  0  0  0
    5.0352   -2.1734    0.0000 C   0  0  0  0  0  0  0  0  0  0  0  0
    6.8372   -2.1734    0.0000 C   0  0  0  0  0  0  0  0  0  0  0  0
    4.8127   -1.1984    0.0000 C   0  0  0  0  0  0  0  0  0  0  0  0
    5.8424   -3.6446    0.0000 C   0  0  0  0  0  0  0  0  0  0  0  0
    4.2827   -2.8935    0.0000 C   0  0  0  0  0  0  0  0  0  0  0  0
    7.7068   -2.7468    0.0000 C   0  0  0  0  0  0  0  0  0  0  0  0
    3.8222   -0.8761    0.0000 C   0  0  0  0  0  0  0  0  0  0  0  0
    6.6984   -4.2380    0.0000 C   0  0  0  0  0  0  0  0  0  0  0  0
    3.2850   -2.5942    0.0000 C   0  0  0  0  0  0  0  0  0  0  0  0
    7.6369   -3.7861    0.0000 C   0  0  0  0  0  0  0  0  0  0  0  0
    3.0532   -1.5787    0.0000 C   0  0  0  0  0  0  0  0  0  0  0  0
    8.6026   -2.3025    0.0000 C   0  0  0  0  0  0  0  0  0  0  0  0
    3.6110    0.1014    0.0000 C   0  0  0  0  0  0  0  0  0  0  0  0
    4.8542   -4.0927    0.0000 C   0  0  0  0  0  0  0  0  0  0  0  0
    3.9869   -3.9374    0.0000 C   0  0  0  0  0  0  0  0  0  0  0  0
    6.6257   -5.3206    0.0000 C   0  0  0  0  0  0  0  0  0  0  0  0
    2.2254   -2.8274    0.0000 C   0  0  0  0  0  0  0  0  0  0  0  0
    9.4353   -2.8562    0.0000 C   0  0  0  0  0  0  0  0  0  0  0  0
    4.3518    0.7730    0.0000 C   0  0  0  0  0  0  0  0  0  0  0  0
    4.7564   -5.1732    0.0000 C   0  0  0  0  0  0  0  0  0  0  0  0
    2.8385   -4.3481    0.0000 C   0  0  0  0  0  0  0  0  0  0  0  0
    5.6482   -5.7913    0.0000 C   0  0  0  0  0  0  0  0  0  0  0  0
    2.0000   -3.7113    0.0000 C   0  0  0  0  0  0  0  0  0  0  0  0
    8.6658   -1.3045    0.0000 C   0  0  0  0  0  0  0  0  0  0  0  0
    2.6589    0.4071    0.0000 C   0  0  0  0  0  0  0  0  0  0  0  0
   10.3312   -2.4120    0.0000 C   0  0  0  0  0  0  0  0  0  0  0  0
    4.1406    1.7504    0.0000 C   0  0  0  0  0  0  0  0  0  0  0  0
   11.1639   -2.9657    0.0000 C   0  0  0  0  0  0  0  0  0  0  0  0
    4.8815    2.4221    0.0000 C   0  0  0  0  0  0  0  0  0  0  0  0
    9.5617   -0.8602    0.0000 C   0  0  0  0  0  0  0  0  0  0  0  0
    2.4476    1.3846    0.0000 C   0  0  0  0  0  0  0  0  0  0  0  0
   10.3944   -1.4140    0.0000 C   0  0  0  0  0  0  0  0  0  0  0  0
    3.1885    2.0562    0.0000 C   0  0  0  0  0  0  0  0  0  0  0  0
   12.0598   -2.5214    0.0000 C   0  0  0  0  0  0  0  0  0  0  0  0
    4.6702    3.3995    0.0000 C   0  0  0  0  0  0  0  0  0  0  0  0
   11.1007   -3.9637    0.0000 C   0  0  0  0  0  0  0  0  0  0  0  0
    5.8336    2.1163    0.0000 C   0  0  0  0  0  0  0  0  0  0  0  0
   12.8925   -3.0752    0.0000 C   0  0  0  0  0  0  0  0  0  0  0  0
    5.4111    4.0712    0.0000 C   0  0  0  0  0  0  0  0  0  0  0  0
   12.8293   -4.0732    0.0000 C   0  0  0  0  0  0  0  0  0  0  0  0
    6.3632    3.7654    0.0000 C   0  0  0  0  0  0  0  0  0  0  0  0
   11.9334   -4.5174    0.0000 C   0  0  0  0  0  0  0  0  0  0  0  0
    6.5744    2.7880    0.0000 C   0  0  0  0  0  0  0  0  0  0  0  0
   13.8185   -2.5981    0.0000 C   0  0  0  0  0  0  0  0  0  0  0  0
    5.1754    5.0858    0.0000 C   0  0  0  0  0  0  0  0  0  0  0  0
   13.6877   -4.6632    0.0000 C   0  0  0  0  0  0  0  0  0  0  0  0
    7.1456    4.4530    0.0000 C   0  0  0  0  0  0  0  0  0  0  0  0
   14.6902   -3.1681    0.0000 C   0  0  0  0  0  0  0  0  0  0  0  0
    5.9417    5.7913    0.0000 C   0  0  0  0  0  0  0  0  0  0  0  0
   14.6244   -4.2077    0.0000 C   0  0  0  0  0  0  0  0  0  0  0  0
    6.9334    5.4728    0.0000 C   0  0  0  0  0  0  0  0  0  0  0  0
    8.1505   -4.1334    0.0000 H   0  0  0  0  0  0  0  0  0  0  0  0
    2.4614   -1.3936    0.0000 H   0  0  0  0  0  0  0  0  0  0  0  0
    4.3487   -3.7336    0.0000 H   0  0  0  0  0  0  0  0  0  0  0  0
    4.4398   -4.3608    0.0000 H   0  0  0  0  0  0  0  0  0  0  0  0
    7.1393   -5.6678    0.0000 H   0  0  0  0  0  0  0  0  0  0  0  0
    1.7942   -2.3819    0.0000 H   0  0  0  0  0  0  0  0  0  0  0  0
    9.3962   -3.4750    0.0000 H   0  0  0  0  0  0  0  0  0  0  0  0
    4.9421    0.5834    0.0000 H   0  0  0  0  0  0  0  0  0  0  0  0
    4.1948   -5.4358    0.0000 H   0  0  0  0  0  0  0  0  0  0  0  0
    2.7440   -4.9608    0.0000 H   0  0  0  0  0  0  0  0  0  0  0  0
    5.5994   -6.4094    0.0000 H   0  0  0  0  0  0  0  0  0  0  0  0
    1.4146   -3.9157    0.0000 H   0  0  0  0  0  0  0  0  0  0  0  0
    8.1496   -0.9612    0.0000 H   0  0  0  0  0  0  0  0  0  0  0  0
    2.1995   -0.0093    0.0000 H   0  0  0  0  0  0  0  0  0  0  0  0
    9.6009   -0.2415    0.0000 H   0  0  0  0  0  0  0  0  0  0  0  0
    1.8573    1.5742    0.0000 H   0  0  0  0  0  0  0  0  0  0  0  0
   10.9499   -1.1385    0.0000 H   0  0  0  0  0  0  0  0  0  0  0  0
    3.0576    2.6622    0.0000 H   0  0  0  0  0  0  0  0  0  0  0  0
    7.7952   -0.0196    0.0000 H   0  0  0  0  0  0  0  0  0  0  0  0
   12.0990   -1.9027    0.0000 H   0  0  0  0  0  0  0  0  0  0  0  0
    4.0799    3.5891    0.0000 H   0  0  0  0  0  0  0  0  0  0  0  0
   10.5453   -4.2391    0.0000 H   0  0  0  0  0  0  0  0  0  0  0  0
    5.9645    1.5103    0.0000 H   0  0  0  0  0  0  0  0  0  0  0  0
   11.8942   -5.1362    0.0000 H   0  0  0  0  0  0  0  0  0  0  0  0
    7.1648    2.5984    0.0000 H   0  0  0  0  0  0  0  0  0  0  0  0
   13.8505   -1.9789    0.0000 H   0  0  0  0  0  0  0  0  0  0  0  0
    4.5830    5.2685    0.0000 H   0  0  0  0  0  0  0  0  0  0  0  0
   13.6414   -5.2815    0.0000 H   0  0  0  0  0  0  0  0  0  0  0  0
    7.7337    4.2566    0.0000 H   0  0  0  0  0  0  0  0  0  0  0  0
   15.2446   -2.8905    0.0000 H   0  0  0  0  0  0  0  0  0  0  0  0
    5.8084    6.3968    0.0000 H   0  0  0  0  0  0  0  0  0  0  0  0
   15.1394   -4.5530    0.0000 H   0  0  0  0  0  0  0  0  0  0  0  0
    7.3944    5.8875    0.0000 H   0  0  0  0  0  0  0  0  0  0  0  0
  1  2  1  0  0  0  0
  1  3  1  0  0  0  0
  1  4  1  0  0  0  0
  1  5  2  0  0  0  0
  2  8  1  0  0  0  0
  3  9  1  0  0  0  0
  4 76  1  0  0  0  0
  6  7  1  0  0  0  0
  6  8  2  0  0  0  0
  6 10  1  0  0  0  0
  7  9  2  0  0  0  0
  7 11  1  0  0  0  0
  8 12  1  0  0  0  0
  9 13  1  0  0  0  0
 10 14  1  0  0  0  0
 10 20  2  0  0  0  0
 11 15  1  0  0  0  0
 11 21  2  0  0  0  0
 12 16  2  0  0  0  0
 12 18  1  0  0  0  0
 13 17  2  0  0  0  0
 13 19  1  0  0  0  0
 14 16  1  0  0  0  0
 14 22  2  0  0  0  0
 15 17  1  0  0  0  0
 15 23  2  0  0  0  0
 16 58  1  0  0  0  0
 17 59  1  0  0  0  0
 18 24  1  0  0  0  0
 18 30  2  0  0  0  0
 19 25  1  0  0  0  0
 19 31  2  0  0  0  0
 20 26  1  0  0  0  0
 20 60  1  0  0  0  0
 21 27  1  0  0  0  0
 21 61  1  0  0  0  0
 22 28  1  0  0  0  0
 22 62  1  0  0  0  0
 23 29  1  0  0  0  0
 23 63  1  0  0  0  0
 24 32  2  0  0  0  0
 24 64  1  0  0  0  0
 25 33  2  0  0  0  0
 25 65  1  0  0  0  0
 26 28  2  0  0  0  0
 26 66  1  0  0  0  0
 27 29  2  0  0  0  0
 27 67  1  0  0  0  0
 28 68  1  0  0  0  0
 29 69  1  0  0  0  0
 30 36  1  0  0  0  0
 30 70  1  0  0  0  0
 31 37  1  0  0  0  0
 31 71  1  0  0  0  0
 32 34  1  0  0  0  0
 32 38  1  0  0  0  0
 33 35  1  0  0  0  0
 33 39  1  0  0  0  0
 34 40  2  0  0  0  0
 34 42  1  0  0  0  0
 35 41  2  0  0  0  0
 35 43  1  0  0  0  0
 36 38  2  0  0  0  0
 36 72  1  0  0  0  0
 37 39  2  0  0  0  0
 37 73  1  0  0  0  0
 38 74  1  0  0  0  0
 39 75  1  0  0  0  0
 40 44  1  0  0  0  0
 40 77  1  0  0  0  0
 41 45  1  0  0  0  0
 41 78  1  0  0  0  0
 42 48  2  0  0  0  0
 42 79  1  0  0  0  0
 43 49  2  0  0  0  0
 43 80  1  0  0  0  0
 44 46  1  0  0  0  0
 44 50  2  0  0  0  0
 45 47  1  0  0  0  0
 45 51  2  0  0  0  0
 46 48  1  0  0  0  0
 46 52  2  0  0  0  0
 47 49  1  0  0  0  0
 47 53  2  0  0  0  0
 48 81  1  0  0  0  0
 49 82  1  0  0  0  0
 50 54  1  0  0  0  0
 50 83  1  0  0  0  0
 51 55  1  0  0  0  0
 51 84  1  0  0  0  0
 52 56  1  0  0  0  0
 52 85  1  0  0  0  0
 53 57  1  0  0  0  0
 53 86  1  0  0  0  0
 54 56  2  0  0  0  0
 54 87  1  0  0  0  0
 55 57  2  0  0  0  0
 55 88  1  0  0  0  0
 56 89  1  0  0  0  0
 57 90  1  0  0  0  0
M  END
> <PUBCHEM_COMPOUND_CID>
154996161

> <PUBCHEM_COMPOUND_CANONICALIZED>
1

> <PUBCHEM_CACTVS_COMPLEXITY>
1320

> <PUBCHEM_CACTVS_HBOND_ACCEPTOR>
4

> <PUBCHEM_CACTVS_HBOND_DONOR>
1

> <PUBCHEM_CACTVS_ROTATABLE_BOND>
4

> <PUBCHEM_CACTVS_SUBSKEYS>
AAADcfB8OAIAAAAAAAAAAAAAAAAAAAAAAAAwYMGDBIAAAADBVAAAGgAACCAADASAmAAwBsAAARCAQiBCAIACAAAgIAAIiAAECIgIJiKAERKAMAAkwBEIiAfAwPAO4AADAAAYAADAAAYAADAAAAAAAAAAAA==

> <PUBCHEM_IUPAC_OPENEYE_NAME>
13-hydroxy-10,16-bis[3-(2-naphthyl)phenyl]-12,14-dioxa-13lambda5-phosphapentacyclo[13.8.0.02,11.03,8.018,23]tricosa-1(15),2(11),3,5,7,9,16,18,20,22-decaene 13-oxide

> <PUBCHEM_IUPAC_CAS_NAME>
13-hydroxy-10,16-bis[3-(2-naphthalenyl)phenyl]-12,14-dioxa-13lambda5-phosphapentacyclo[13.8.0.02,11.03,8.018,23]tricosa-1(15),2(11),3,5,7,9,16,18,20,22-decaene 13-oxide

> <PUBCHEM_IUPAC_NAME_MARKUP>
13-hydroxy-10,16-bis(3-naphthalen-2-ylphenyl)-12,14-dioxa-13&lambda;<SUP>5</SUP>-phosphapentacyclo[13.8.0.0<SUP>2,11</SUP>.0<SUP>3,8</SUP>.0<SUP>18,23</SUP>]tricosa-1(15),2(11),3,5,7,9,16,18,20,22-decaene 13-oxide

> <PUBCHEM_IUPAC_NAME>
13-hydroxy-10,16-bis(3-naphthalen-2-ylphenyl)-12,14-dioxa-13lambda5-phosphapentacyclo[13.8.0.02,11.03,8.018,23]tricosa-1(15),2(11),3,5,7,9,16,18,20,22-decaene 13-oxide

> <PUBCHEM_IUPAC_SYSTEMATIC_NAME>
10,16-bis(3-naphthalen-2-ylphenyl)-13-oxidanyl-12,14-dioxa-13lambda5-phosphapentacyclo[13.8.0.02,11.03,8.018,23]tricosa-1(15),2(11),3,5,7,9,16,18,20,22-decaene 13-oxide

> <PUBCHEM_IUPAC_TRADITIONAL_NAME>
13-hydroxy-10,16-bis[3-(2-naphthyl)phenyl]-12,14-dioxa-13lambda5-phosphapentacyclo[13.8.0.02,11.03,8.018,23]tricosa-1(15),2(11),3,5,7,9,16,18,20,22-decaene 13-oxide

> <PUBCHEM_IUPAC_INCHI>
InChI=1S/C52H33O4P/c53-57(54)55-51-47(41-19-9-17-37(29-41)39-25-23-33-11-1-3-13-35(33)27-39)31-43-15-5-7-21-45(43)49(51)50-46-22-8-6-16-44(46)32-48(52(50)56-57)42-20-10-18-38(30-42)40-26-24-34-12-2-4-14-36(34)28-40/h1-32H,(H,53,54)

> <PUBCHEM_IUPAC_INCHIKEY>
UCXVZXUNDQJGPB-UHFFFAOYSA-N

> <PUBCHEM_XLOGP3_AA>
13.8

> <PUBCHEM_EXACT_MASS>
752.211647

> <PUBCHEM_MOLECULAR_FORMULA>
C52H33O4P

> <PUBCHEM_MOLECULAR_WEIGHT>
752.8

> <PUBCHEM_OPENEYE_CAN_SMILES>
C1=CC=C2C=C(C=CC2=C1)C3=CC(=CC=C3)C4=CC5=CC=CC=C5C6=C4OP(=O)(OC7=C6C8=CC=CC=C8C=C7C9=CC=CC(=C9)C1=CC2=CC=CC=C2C=C1)O

> <PUBCHEM_OPENEYE_ISO_SMILES>
C1=CC=C2C=C(C=CC2=C1)C3=CC(=CC=C3)C4=CC5=CC=CC=C5C6=C4OP(=O)(OC7=C6C8=CC=CC=C8C=C7C9=CC=CC(=C9)C1=CC2=CC=CC=C2C=C1)O

> <PUBCHEM_CACTVS_TPSA>
55.8

> <PUBCHEM_MONOISOTOPIC_WEIGHT>
752.211647

> <PUBCHEM_TOTAL_CHARGE>
0

> <PUBCHEM_HEAVY_ATOM_COUNT>
57

> <PUBCHEM_ATOM_DEF_STEREO_COUNT>
0

> <PUBCHEM_ATOM_UDEF_STEREO_COUNT>
0

> <PUBCHEM_BOND_DEF_STEREO_COUNT>
0

> <PUBCHEM_BOND_UDEF_STEREO_COUNT>
0

> <PUBCHEM_ISOTOPIC_ATOM_COUNT>
0

> <PUBCHEM_COMPONENT_COUNT>
1

> <PUBCHEM_CACTVS_TAUTO_COUNT>
-1

> <PUBCHEM_COORDINATE_TYPE>
1
5
255

> <PUBCHEM_BONDANNOTATIONS>
10  14  8
10  20  8
11  15  8
11  21  8
12  16  8
13  17  8
14  16  8
14  22  8
15  17  8
15  23  8
18  24  8
18  30  8
19  25  8
19  31  8
20  26  8
21  27  8
22  28  8
23  29  8
24  32  8
25  33  8
26  28  8
27  29  8
30  36  8
31  37  8
32  38  8
33  39  8
34  40  8
34  42  8
35  41  8
35  43  8
36  38  8
37  39  8
40  44  8
41  45  8
42  48  8
43  49  8
44  46  8
44  50  8
45  47  8
45  51  8
46  48  8
46  52  8
47  49  8
47  53  8
50  54  8
51  55  8
52  56  8
53  57  8
54  56  8
55  57  8
6  10  8
6  8  8
7  11  8
7  9  8
8  12  8
9  13  8

$$$$
