11445621
  -OEChem-04302101582D

 90100  0     0  0  0  0  0  0999 V2000
    7.8466   -0.6150    0.0000 P   0  0  0  0  0  0  0  0  0  0  0  0
    8.4701   -1.3969    0.0000 O   0  0  0  0  0  0  0  0  0  0  0  0
    6.8466   -0.6150    0.0000 O   0  0  0  0  0  0  0  0  0  0  0  0
    7.8466    0.3850    0.0000 O   0  0  0  0  0  0  0  0  0  0  0  0
    8.6285    0.0085    0.0000 O   0  0  0  0  0  0  0  0  0  0  0  0
    7.3466   -2.8057    0.0000 C   0  0  0  0  0  0  0  0  0  0  0  0
    6.4457   -2.3718    0.0000 C   0  0  0  0  0  0  0  0  0  0  0  0
    8.2476   -2.3718    0.0000 C   0  0  0  0  0  0  0  0  0  0  0  0
    6.2232   -1.3969    0.0000 C   0  0  0  0  0  0  0  0  0  0  0  0
    7.2528   -3.8431    0.0000 C   0  0  0  0  0  0  0  0  0  0  0  0
    5.6931   -3.0920    0.0000 C   0  0  0  0  0  0  0  0  0  0  0  0
    9.1172   -2.9452    0.0000 C   0  0  0  0  0  0  0  0  0  0  0  0
    5.2327   -1.0745    0.0000 C   0  0  0  0  0  0  0  0  0  0  0  0
    8.1089   -4.4365    0.0000 C   0  0  0  0  0  0  0  0  0  0  0  0
    4.6954   -2.7926    0.0000 C   0  0  0  0  0  0  0  0  0  0  0  0
    9.0474   -3.9845    0.0000 C   0  0  0  0  0  0  0  0  0  0  0  0
    4.4636   -1.7771    0.0000 C   0  0  0  0  0  0  0  0  0  0  0  0
   10.0131   -2.5010    0.0000 C   0  0  0  0  0  0  0  0  0  0  0  0
    5.0214   -0.0971    0.0000 C   0  0  0  0  0  0  0  0  0  0  0  0
    6.6210   -4.7252    0.0000 C   0  0  0  0  0  0  0  0  0  0  0  0
    5.9590   -4.1439    0.0000 C   0  0  0  0  0  0  0  0  0  0  0  0
    8.5872   -5.4104    0.0000 C   0  0  0  0  0  0  0  0  0  0  0  0
    3.8944   -3.5245    0.0000 C   0  0  0  0  0  0  0  0  0  0  0  0
    7.0160   -5.8790    0.0000 C   0  0  0  0  0  0  0  0  0  0  0  0
    5.1751   -4.8941    0.0000 C   0  0  0  0  0  0  0  0  0  0  0  0
    8.0366   -6.1376    0.0000 C   0  0  0  0  0  0  0  0  0  0  0  0
    4.1358   -4.5822    0.0000 C   0  0  0  0  0  0  0  0  0  0  0  0
   10.8458   -3.0547    0.0000 C   0  0  0  0  0  0  0  0  0  0  0  0
    5.7623    0.5746    0.0000 C   0  0  0  0  0  0  0  0  0  0  0  0
   10.0763   -1.5030    0.0000 C   0  0  0  0  0  0  0  0  0  0  0  0
    4.0693    0.2087    0.0000 C   0  0  0  0  0  0  0  0  0  0  0  0
   11.8049   -1.6124    0.0000 C   0  0  0  0  0  0  0  0  0  0  0  0
    4.5990    1.8578    0.0000 C   0  0  0  0  0  0  0  0  0  0  0  0
   11.7417   -2.6104    0.0000 C   0  0  0  0  0  0  0  0  0  0  0  0
    5.5511    1.5520    0.0000 C   0  0  0  0  0  0  0  0  0  0  0  0
   10.9722   -1.0587    0.0000 C   0  0  0  0  0  0  0  0  0  0  0  0
    3.8581    1.1861    0.0000 C   0  0  0  0  0  0  0  0  0  0  0  0
   12.7008   -1.1681    0.0000 C   0  0  0  0  0  0  0  0  0  0  0  0
    4.3877    2.8352    0.0000 C   0  0  0  0  0  0  0  0  0  0  0  0
   13.5335   -1.7219    0.0000 C   0  0  0  0  0  0  0  0  0  0  0  0
    3.4356    3.1410    0.0000 C   0  0  0  0  0  0  0  0  0  0  0  0
   12.7640   -0.1701    0.0000 C   0  0  0  0  0  0  0  0  0  0  0  0
    5.1286    3.5069    0.0000 C   0  0  0  0  0  0  0  0  0  0  0  0
   14.4294   -1.2776    0.0000 C   0  0  0  0  0  0  0  0  0  0  0  0
    3.2244    4.1184    0.0000 C   0  0  0  0  0  0  0  0  0  0  0  0
   14.4926   -0.2796    0.0000 C   0  0  0  0  0  0  0  0  0  0  0  0
    3.9653    4.7901    0.0000 C   0  0  0  0  0  0  0  0  0  0  0  0
   13.6599    0.2741    0.0000 C   0  0  0  0  0  0  0  0  0  0  0  0
    4.9174    4.4843    0.0000 C   0  0  0  0  0  0  0  0  0  0  0  0
   15.2877   -1.8677    0.0000 C   0  0  0  0  0  0  0  0  0  0  0  0
    2.2279    4.4216    0.0000 C   0  0  0  0  0  0  0  0  0  0  0  0
   15.4185    0.1975    0.0000 C   0  0  0  0  0  0  0  0  0  0  0  0
    3.7610    5.8115    0.0000 C   0  0  0  0  0  0  0  0  0  0  0  0
   16.2245   -1.4121    0.0000 C   0  0  0  0  0  0  0  0  0  0  0  0
    2.0000    5.4380    0.0000 C   0  0  0  0  0  0  0  0  0  0  0  0
   16.2903   -0.3726    0.0000 C   0  0  0  0  0  0  0  0  0  0  0  0
    2.7717    6.1376    0.0000 C   0  0  0  0  0  0  0  0  0  0  0  0
    9.5610   -4.3318    0.0000 H   0  0  0  0  0  0  0  0  0  0  0  0
    3.8719   -1.5921    0.0000 H   0  0  0  0  0  0  0  0  0  0  0  0
    6.0076   -4.6350    0.0000 H   0  0  0  0  0  0  0  0  0  0  0  0
    6.5548   -4.3152    0.0000 H   0  0  0  0  0  0  0  0  0  0  0  0
    9.2043   -5.4696    0.0000 H   0  0  0  0  0  0  0  0  0  0  0  0
    3.3027   -3.3394    0.0000 H   0  0  0  0  0  0  0  0  0  0  0  0
    6.5959   -6.3350    0.0000 H   0  0  0  0  0  0  0  0  0  0  0  0
    5.3200   -5.4969    0.0000 H   0  0  0  0  0  0  0  0  0  0  0  0
    8.2419   -6.7227    0.0000 H   0  0  0  0  0  0  0  0  0  0  0  0
    3.6830   -5.0057    0.0000 H   0  0  0  0  0  0  0  0  0  0  0  0
   10.8066   -3.6734    0.0000 H   0  0  0  0  0  0  0  0  0  0  0  0
    6.3526    0.3850    0.0000 H   0  0  0  0  0  0  0  0  0  0  0  0
    9.5600   -1.1596    0.0000 H   0  0  0  0  0  0  0  0  0  0  0  0
    3.6100   -0.2077    0.0000 H   0  0  0  0  0  0  0  0  0  0  0  0
   12.2580   -2.9537    0.0000 H   0  0  0  0  0  0  0  0  0  0  0  0
    6.0104    1.9684    0.0000 H   0  0  0  0  0  0  0  0  0  0  0  0
   11.0114   -0.4399    0.0000 H   0  0  0  0  0  0  0  0  0  0  0  0
    3.2678    1.3757    0.0000 H   0  0  0  0  0  0  0  0  0  0  0  0
    8.3836    0.6950    0.0000 H   0  0  0  0  0  0  0  0  0  0  0  0
   13.4943   -2.3406    0.0000 H   0  0  0  0  0  0  0  0  0  0  0  0
    2.9763    2.7246    0.0000 H   0  0  0  0  0  0  0  0  0  0  0  0
   12.2477    0.1732    0.0000 H   0  0  0  0  0  0  0  0  0  0  0  0
    5.7189    3.3173    0.0000 H   0  0  0  0  0  0  0  0  0  0  0  0
   13.6990    0.8929    0.0000 H   0  0  0  0  0  0  0  0  0  0  0  0
    5.3767    4.9007    0.0000 H   0  0  0  0  0  0  0  0  0  0  0  0
   15.2414   -2.4859    0.0000 H   0  0  0  0  0  0  0  0  0  0  0  0
    1.7734    3.9999    0.0000 H   0  0  0  0  0  0  0  0  0  0  0  0
   15.4505    0.8167    0.0000 H   0  0  0  0  0  0  0  0  0  0  0  0
    4.2251    6.2226    0.0000 H   0  0  0  0  0  0  0  0  0  0  0  0
   16.7394   -1.7574    0.0000 H   0  0  0  0  0  0  0  0  0  0  0  0
    1.4090    5.6253    0.0000 H   0  0  0  0  0  0  0  0  0  0  0  0
   16.8447   -0.0950    0.0000 H   0  0  0  0  0  0  0  0  0  0  0  0
    2.6431    6.7441    0.0000 H   0  0  0  0  0  0  0  0  0  0  0  0
  1  2  1  0  0  0  0
  1  3  1  0  0  0  0
  1  4  1  0  0  0  0
  1  5  2  0  0  0  0
  2  8  1  0  0  0  0
  3  9  1  0  0  0  0
  4 76  1  0  0  0  0
  6  7  1  0  0  0  0
  6  8  2  0  0  0  0
  6 10  1  0  0  0  0
  7  9  2  0  0  0  0
  7 11  1  0  0  0  0
  8 12  1  0  0  0  0
  9 13  1  0  0  0  0
 10 14  1  0  0  0  0
 10 20  2  0  0  0  0
 11 15  1  0  0  0  0
 11 21  2  0  0  0  0
 12 16  2  0  0  0  0
 12 18  1  0  0  0  0
 13 17  2  0  0  0  0
 13 19  1  0  0  0  0
 14 16  1  0  0  0  0
 14 22  2  0  0  0  0
 15 17  1  0  0  0  0
 15 23  2  0  0  0  0
 16 58  1  0  0  0  0
 17 59  1  0  0  0  0
 18 28  2  0  0  0  0
 18 30  1  0  0  0  0
 19 29  2  0  0  0  0
 19 31  1  0  0  0  0
 20 24  1  0  0  0  0
 20 60  1  0  0  0  0
 21 25  1  0  0  0  0
 21 61  1  0  0  0  0
 22 26  1  0  0  0  0
 22 62  1  0  0  0  0
 23 27  1  0  0  0  0
 23 63  1  0  0  0  0
 24 26  2  0  0  0  0
 24 64  1  0  0  0  0
 25 27  2  0  0  0  0
 25 65  1  0  0  0  0
 26 66  1  0  0  0  0
 27 67  1  0  0  0  0
 28 34  1  0  0  0  0
 28 68  1  0  0  0  0
 29 35  1  0  0  0  0
 29 69  1  0  0  0  0
 30 36  2  0  0  0  0
 30 70  1  0  0  0  0
 31 37  2  0  0  0  0
 31 71  1  0  0  0  0
 32 34  2  0  0  0  0
 32 36  1  0  0  0  0
 32 38  1  0  0  0  0
 33 35  2  0  0  0  0
 33 37  1  0  0  0  0
 33 39  1  0  0  0  0
 34 72  1  0  0  0  0
 35 73  1  0  0  0  0
 36 74  1  0  0  0  0
 37 75  1  0  0  0  0
 38 40  2  0  0  0  0
 38 42  1  0  0  0  0
 39 41  2  0  0  0  0
 39 43  1  0  0  0  0
 40 44  1  0  0  0  0
 40 77  1  0  0  0  0
 41 45  1  0  0  0  0
 41 78  1  0  0  0  0
 42 48  2  0  0  0  0
 42 79  1  0  0  0  0
 43 49  2  0  0  0  0
 43 80  1  0  0  0  0
 44 46  1  0  0  0  0
 44 50  2  0  0  0  0
 45 47  1  0  0  0  0
 45 51  2  0  0  0  0
 46 48  1  0  0  0  0
 46 52  2  0  0  0  0
 47 49  1  0  0  0  0
 47 53  2  0  0  0  0
 48 81  1  0  0  0  0
 49 82  1  0  0  0  0
 50 54  1  0  0  0  0
 50 83  1  0  0  0  0
 51 55  1  0  0  0  0
 51 84  1  0  0  0  0
 52 56  1  0  0  0  0
 52 85  1  0  0  0  0
 53 57  1  0  0  0  0
 53 86  1  0  0  0  0
 54 56  2  0  0  0  0
 54 87  1  0  0  0  0
 55 57  2  0  0  0  0
 55 88  1  0  0  0  0
 56 89  1  0  0  0  0
 57 90  1  0  0  0  0
M  END
> <PUBCHEM_COMPOUND_CID>
11445621

> <PUBCHEM_COMPOUND_CANONICALIZED>
1

> <PUBCHEM_CACTVS_COMPLEXITY>
1300

> <PUBCHEM_CACTVS_HBOND_ACCEPTOR>
4

> <PUBCHEM_CACTVS_HBOND_DONOR>
1

> <PUBCHEM_CACTVS_ROTATABLE_BOND>
4

> <PUBCHEM_CACTVS_SUBSKEYS>
AAADcfB8OAIAAAAAAAAAAAAAAAAAAAAAAAAwYMGDBIAAAADBVAAAGgAACCAADASAmAAwBsAAARCAQiBCAIACAAAgIAAIiAAECIgIJiKAERKAMAAkwBEIiAfAwPAO4AADAAAYAADAAAYAADAAAAAAAAAAAA==

> <PUBCHEM_IUPAC_OPENEYE_NAME>
13-hydroxy-10,16-bis[4-(2-naphthyl)phenyl]-12,14-dioxa-13lambda5-phosphapentacyclo[13.8.0.02,11.03,8.018,23]tricosa-1(15),2(11),3,5,7,9,16,18,20,22-decaene 13-oxide

> <PUBCHEM_IUPAC_CAS_NAME>
13-hydroxy-10,16-bis[4-(2-naphthalenyl)phenyl]-12,14-dioxa-13lambda5-phosphapentacyclo[13.8.0.02,11.03,8.018,23]tricosa-1(15),2(11),3,5,7,9,16,18,20,22-decaene 13-oxide

> <PUBCHEM_IUPAC_NAME_MARKUP>
13-hydroxy-10,16-bis(4-naphthalen-2-ylphenyl)-12,14-dioxa-13&lambda;<SUP>5</SUP>-phosphapentacyclo[13.8.0.0<SUP>2,11</SUP>.0<SUP>3,8</SUP>.0<SUP>18,23</SUP>]tricosa-1(15),2(11),3,5,7,9,16,18,20,22-decaene 13-oxide

> <PUBCHEM_IUPAC_NAME>
13-hydroxy-10,16-bis(4-naphthalen-2-ylphenyl)-12,14-dioxa-13lambda5-phosphapentacyclo[13.8.0.02,11.03,8.018,23]tricosa-1(15),2(11),3,5,7,9,16,18,20,22-decaene 13-oxide

> <PUBCHEM_IUPAC_SYSTEMATIC_NAME>
10,16-bis(4-naphthalen-2-ylphenyl)-13-oxidanyl-12,14-dioxa-13lambda5-phosphapentacyclo[13.8.0.02,11.03,8.018,23]tricosa-1(15),2(11),3,5,7,9,16,18,20,22-decaene 13-oxide

> <PUBCHEM_IUPAC_TRADITIONAL_NAME>
13-hydroxy-10,16-bis[4-(2-naphthyl)phenyl]-12,14-dioxa-13lambda5-phosphapentacyclo[13.8.0.02,11.03,8.018,23]tricosa-1(15),2(11),3,5,7,9,16,18,20,22-decaene 13-oxide

> <PUBCHEM_IUPAC_INCHI>
InChI=1S/C52H33O4P/c53-57(54)55-51-47(37-23-17-35(18-24-37)41-27-21-33-9-1-3-11-39(33)29-41)31-43-13-5-7-15-45(43)49(51)50-46-16-8-6-14-44(46)32-48(52(50)56-57)38-25-19-36(20-26-38)42-28-22-34-10-2-4-12-40(34)30-42/h1-32H,(H,53,54)

> <PUBCHEM_IUPAC_INCHIKEY>
FRXFYAVXIXQHHE-UHFFFAOYSA-N

> <PUBCHEM_XLOGP3_AA>
13.8

> <PUBCHEM_EXACT_MASS>
752.211647

> <PUBCHEM_MOLECULAR_FORMULA>
C52H33O4P

> <PUBCHEM_MOLECULAR_WEIGHT>
752.8

> <PUBCHEM_OPENEYE_CAN_SMILES>
C1=CC=C2C=C(C=CC2=C1)C3=CC=C(C=C3)C4=CC5=CC=CC=C5C6=C4OP(=O)(OC7=C6C8=CC=CC=C8C=C7C9=CC=C(C=C9)C1=CC2=CC=CC=C2C=C1)O

> <PUBCHEM_OPENEYE_ISO_SMILES>
C1=CC=C2C=C(C=CC2=C1)C3=CC=C(C=C3)C4=CC5=CC=CC=C5C6=C4OP(=O)(OC7=C6C8=CC=CC=C8C=C7C9=CC=C(C=C9)C1=CC2=CC=CC=C2C=C1)O

> <PUBCHEM_CACTVS_TPSA>
55.8

> <PUBCHEM_MONOISOTOPIC_WEIGHT>
752.211647

> <PUBCHEM_TOTAL_CHARGE>
0

> <PUBCHEM_HEAVY_ATOM_COUNT>
57

> <PUBCHEM_ATOM_DEF_STEREO_COUNT>
0

> <PUBCHEM_ATOM_UDEF_STEREO_COUNT>
0

> <PUBCHEM_BOND_DEF_STEREO_COUNT>
0

> <PUBCHEM_BOND_UDEF_STEREO_COUNT>
0

> <PUBCHEM_ISOTOPIC_ATOM_COUNT>
0

> <PUBCHEM_COMPONENT_COUNT>
1

> <PUBCHEM_CACTVS_TAUTO_COUNT>
-1

> <PUBCHEM_COORDINATE_TYPE>
1
5
255

> <PUBCHEM_BONDANNOTATIONS>
10  14  8
10  20  8
11  15  8
11  21  8
12  16  8
13  17  8
14  16  8
14  22  8
15  17  8
15  23  8
18  28  8
18  30  8
19  29  8
19  31  8
20  24  8
21  25  8
22  26  8
23  27  8
24  26  8
25  27  8
28  34  8
29  35  8
30  36  8
31  37  8
32  34  8
32  36  8
33  35  8
33  37  8
38  40  8
38  42  8
39  41  8
39  43  8
40  44  8
41  45  8
42  48  8
43  49  8
44  46  8
44  50  8
45  47  8
45  51  8
46  48  8
46  52  8
47  49  8
47  53  8
50  54  8
51  55  8
52  56  8
53  57  8
54  56  8
55  57  8
6  10  8
6  8  8
7  11  8
7  9  8
8  12  8
9  13  8

$$$$
