56590292
  -OEChem-04302101422D

 86 98  0     0  0  0  0  0  0999 V2000
    8.8565    0.8543    0.0000 P   0  0  0  0  0  0  0  0  0  0  0  0
    9.4800    0.0725    0.0000 O   0  0  0  0  0  0  0  0  0  0  0  0
    7.8565    0.8543    0.0000 O   0  0  0  0  0  0  0  0  0  0  0  0
    8.8565    1.8543    0.0000 O   0  0  0  0  0  0  0  0  0  0  0  0
    9.6383    1.4778    0.0000 O   0  0  0  0  0  0  0  0  0  0  0  0
    8.3565   -1.3363    0.0000 C   0  0  0  0  0  0  0  0  0  0  0  0
    7.4555   -0.9025    0.0000 C   0  0  0  0  0  0  0  0  0  0  0  0
   10.1270   -1.4759    0.0000 C   0  0  0  0  0  0  0  0  0  0  0  0
    6.2425    0.3948    0.0000 C   0  0  0  0  0  0  0  0  0  0  0  0
    9.2574   -0.9025    0.0000 C   0  0  0  0  0  0  0  0  0  0  0  0
    7.2330    0.0725    0.0000 C   0  0  0  0  0  0  0  0  0  0  0  0
   11.0229   -1.0316    0.0000 C   0  0  0  0  0  0  0  0  0  0  0  0
    6.0312    1.3722    0.0000 C   0  0  0  0  0  0  0  0  0  0  0  0
   12.7445   -1.1482    0.0000 C   0  0  0  0  0  0  0  0  0  0  0  0
    4.8667    2.6455    0.0000 C   0  0  0  0  0  0  0  0  0  0  0  0
   11.8453   -1.5858    0.0000 C   0  0  0  0  0  0  0  0  0  0  0  0
    5.0852    1.6697    0.0000 C   0  0  0  0  0  0  0  0  0  0  0  0
    8.2626   -2.3737    0.0000 C   0  0  0  0  0  0  0  0  0  0  0  0
    6.7030   -1.6226    0.0000 C   0  0  0  0  0  0  0  0  0  0  0  0
   13.5730   -1.7081    0.0000 C   0  0  0  0  0  0  0  0  0  0  0  0
    3.9124    2.9443    0.0000 C   0  0  0  0  0  0  0  0  0  0  0  0
    9.1187   -2.9671    0.0000 C   0  0  0  0  0  0  0  0  0  0  0  0
    5.7053   -1.3233    0.0000 C   0  0  0  0  0  0  0  0  0  0  0  0
   12.8020   -0.1081    0.0000 C   0  0  0  0  0  0  0  0  0  0  0  0
    5.6440    3.3389    0.0000 C   0  0  0  0  0  0  0  0  0  0  0  0
   10.0572   -2.5152    0.0000 C   0  0  0  0  0  0  0  0  0  0  0  0
    5.4735   -0.3078    0.0000 C   0  0  0  0  0  0  0  0  0  0  0  0
   13.5025   -2.7056    0.0000 C   0  0  0  0  0  0  0  0  0  0  0  0
    3.1765    2.2671    0.0000 C   0  0  0  0  0  0  0  0  0  0  0  0
   11.0795   -0.0415    0.0000 C   0  0  0  0  0  0  0  0  0  0  0  0
    6.7700    2.0338    0.0000 C   0  0  0  0  0  0  0  0  0  0  0  0
   14.5166   -1.2667    0.0000 C   0  0  0  0  0  0  0  0  0  0  0  0
    3.6692    3.9571    0.0000 C   0  0  0  0  0  0  0  0  0  0  0  0
   11.7747   -2.5833    0.0000 C   0  0  0  0  0  0  0  0  0  0  0  0
    4.3493    0.9926    0.0000 C   0  0  0  0  0  0  0  0  0  0  0  0
   11.9597    0.4154    0.0000 C   0  0  0  0  0  0  0  0  0  0  0  0
    6.5785    3.0068    0.0000 C   0  0  0  0  0  0  0  0  0  0  0  0
   12.6033   -3.1432    0.0000 C   0  0  0  0  0  0  0  0  0  0  0  0
    3.3950    1.2913    0.0000 C   0  0  0  0  0  0  0  0  0  0  0  0
    7.6309   -3.2558    0.0000 C   0  0  0  0  0  0  0  0  0  0  0  0
    6.9688   -2.6746    0.0000 C   0  0  0  0  0  0  0  0  0  0  0  0
   13.7350    0.3549    0.0000 C   0  0  0  0  0  0  0  0  0  0  0  0
    5.4243    4.3571    0.0000 C   0  0  0  0  0  0  0  0  0  0  0  0
   14.5981   -0.2283    0.0000 C   0  0  0  0  0  0  0  0  0  0  0  0
    4.4303    4.6683    0.0000 C   0  0  0  0  0  0  0  0  0  0  0  0
    9.5970   -3.9410    0.0000 C   0  0  0  0  0  0  0  0  0  0  0  0
    4.9042   -2.0551    0.0000 C   0  0  0  0  0  0  0  0  0  0  0  0
   14.3235   -3.2618    0.0000 C   0  0  0  0  0  0  0  0  0  0  0  0
    2.2297    2.5622    0.0000 C   0  0  0  0  0  0  0  0  0  0  0  0
   15.3165   -1.8528    0.0000 C   0  0  0  0  0  0  0  0  0  0  0  0
    2.7122    4.2171    0.0000 C   0  0  0  0  0  0  0  0  0  0  0  0
    8.0258   -4.4097    0.0000 C   0  0  0  0  0  0  0  0  0  0  0  0
    6.1849   -3.4247    0.0000 C   0  0  0  0  0  0  0  0  0  0  0  0
   15.2210   -2.8400    0.0000 C   0  0  0  0  0  0  0  0  0  0  0  0
    2.0000    3.5269    0.0000 C   0  0  0  0  0  0  0  0  0  0  0  0
    9.0465   -4.6683    0.0000 C   0  0  0  0  0  0  0  0  0  0  0  0
    5.1457   -3.1129    0.0000 C   0  0  0  0  0  0  0  0  0  0  0  0
   10.5708   -2.8625    0.0000 H   0  0  0  0  0  0  0  0  0  0  0  0
    4.8817   -0.1227    0.0000 H   0  0  0  0  0  0  0  0  0  0  0  0
   10.5591    0.2954    0.0000 H   0  0  0  0  0  0  0  0  0  0  0  0
    7.3580    1.8370    0.0000 H   0  0  0  0  0  0  0  0  0  0  0  0
   11.2173   -2.8546    0.0000 H   0  0  0  0  0  0  0  0  0  0  0  0
    4.4848    0.3875    0.0000 H   0  0  0  0  0  0  0  0  0  0  0  0
   11.9836    1.0349    0.0000 H   0  0  0  0  0  0  0  0  0  0  0  0
    7.0479    3.4118    0.0000 H   0  0  0  0  0  0  0  0  0  0  0  0
   12.5596   -3.7616    0.0000 H   0  0  0  0  0  0  0  0  0  0  0  0
    2.9388    0.8715    0.0000 H   0  0  0  0  0  0  0  0  0  0  0  0
    7.0174   -3.1657    0.0000 H   0  0  0  0  0  0  0  0  0  0  0  0
    7.5646   -2.8458    0.0000 H   0  0  0  0  0  0  0  0  0  0  0  0
   13.7764    0.9735    0.0000 H   0  0  0  0  0  0  0  0  0  0  0  0
    5.8822    4.7752    0.0000 H   0  0  0  0  0  0  0  0  0  0  0  0
   15.1566    0.0409    0.0000 H   0  0  0  0  0  0  0  0  0  0  0  0
    4.2925    5.2728    0.0000 H   0  0  0  0  0  0  0  0  0  0  0  0
   10.2142   -4.0003    0.0000 H   0  0  0  0  0  0  0  0  0  0  0  0
    4.3125   -1.8701    0.0000 H   0  0  0  0  0  0  0  0  0  0  0  0
   14.2751   -3.8799    0.0000 H   0  0  0  0  0  0  0  0  0  0  0  0
    1.7766    2.1390    0.0000 H   0  0  0  0  0  0  0  0  0  0  0  0
   15.8824   -1.5995    0.0000 H   0  0  0  0  0  0  0  0  0  0  0  0
    2.5575    4.8174    0.0000 H   0  0  0  0  0  0  0  0  0  0  0  0
    7.6057   -4.8656    0.0000 H   0  0  0  0  0  0  0  0  0  0  0  0
    6.3298   -4.0275    0.0000 H   0  0  0  0  0  0  0  0  0  0  0  0
   15.7277   -3.1971    0.0000 H   0  0  0  0  0  0  0  0  0  0  0  0
    1.4048    3.7005    0.0000 H   0  0  0  0  0  0  0  0  0  0  0  0
    9.2517   -5.2534    0.0000 H   0  0  0  0  0  0  0  0  0  0  0  0
    4.6928   -3.5364    0.0000 H   0  0  0  0  0  0  0  0  0  0  0  0
    9.3934    2.1643    0.0000 H   0  0  0  0  0  0  0  0  0  0  0  0
  1  2  1  0  0  0  0
  1  3  1  0  0  0  0
  1  4  1  0  0  0  0
  1  5  2  0  0  0  0
  2 10  1  0  0  0  0
  3 11  1  0  0  0  0
  4 86  1  0  0  0  0
  6  7  1  0  0  0  0
  6 10  2  0  0  0  0
  6 18  1  0  0  0  0
  7 11  2  0  0  0  0
  7 19  1  0  0  0  0
  8 10  1  0  0  0  0
  8 12  1  0  0  0  0
  8 26  2  0  0  0  0
  9 11  1  0  0  0  0
  9 13  1  0  0  0  0
  9 27  2  0  0  0  0
 12 16  2  0  0  0  0
 12 30  1  0  0  0  0
 13 17  2  0  0  0  0
 13 31  1  0  0  0  0
 14 16  1  0  0  0  0
 14 20  1  0  0  0  0
 14 24  2  0  0  0  0
 15 17  1  0  0  0  0
 15 21  1  0  0  0  0
 15 25  2  0  0  0  0
 16 34  1  0  0  0  0
 17 35  1  0  0  0  0
 18 22  1  0  0  0  0
 18 40  2  0  0  0  0
 19 23  1  0  0  0  0
 19 41  2  0  0  0  0
 20 28  1  0  0  0  0
 20 32  2  0  0  0  0
 21 29  1  0  0  0  0
 21 33  2  0  0  0  0
 22 26  1  0  0  0  0
 22 46  2  0  0  0  0
 23 27  1  0  0  0  0
 23 47  2  0  0  0  0
 24 36  1  0  0  0  0
 24 42  1  0  0  0  0
 25 37  1  0  0  0  0
 25 43  1  0  0  0  0
 26 58  1  0  0  0  0
 27 59  1  0  0  0  0
 28 38  1  0  0  0  0
 28 48  2  0  0  0  0
 29 39  1  0  0  0  0
 29 49  2  0  0  0  0
 30 36  2  0  0  0  0
 30 60  1  0  0  0  0
 31 37  2  0  0  0  0
 31 61  1  0  0  0  0
 32 44  1  0  0  0  0
 32 50  1  0  0  0  0
 33 45  1  0  0  0  0
 33 51  1  0  0  0  0
 34 38  2  0  0  0  0
 34 62  1  0  0  0  0
 35 39  2  0  0  0  0
 35 63  1  0  0  0  0
 36 64  1  0  0  0  0
 37 65  1  0  0  0  0
 38 66  1  0  0  0  0
 39 67  1  0  0  0  0
 40 52  1  0  0  0  0
 40 68  1  0  0  0  0
 41 53  1  0  0  0  0
 41 69  1  0  0  0  0
 42 44  2  0  0  0  0
 42 70  1  0  0  0  0
 43 45  2  0  0  0  0
 43 71  1  0  0  0  0
 44 72  1  0  0  0  0
 45 73  1  0  0  0  0
 46 56  1  0  0  0  0
 46 74  1  0  0  0  0
 47 57  1  0  0  0  0
 47 75  1  0  0  0  0
 48 54  1  0  0  0  0
 48 76  1  0  0  0  0
 49 55  1  0  0  0  0
 49 77  1  0  0  0  0
 50 54  2  0  0  0  0
 50 78  1  0  0  0  0
 51 55  2  0  0  0  0
 51 79  1  0  0  0  0
 52 56  2  0  0  0  0
 52 80  1  0  0  0  0
 53 57  2  0  0  0  0
 53 81  1  0  0  0  0
 54 82  1  0  0  0  0
 55 83  1  0  0  0  0
 56 84  1  0  0  0  0
 57 85  1  0  0  0  0
M  END
> <PUBCHEM_COMPOUND_CID>
56590292

> <PUBCHEM_COMPOUND_CANONICALIZED>
1

> <PUBCHEM_CACTVS_COMPLEXITY>
1440

> <PUBCHEM_CACTVS_HBOND_ACCEPTOR>
4

> <PUBCHEM_CACTVS_HBOND_DONOR>
1

> <PUBCHEM_CACTVS_ROTATABLE_BOND>
2

> <PUBCHEM_CACTVS_SUBSKEYS>
AAADceB8OAIAAAAAAAAAAAAAAAAAAAAAAAAwYMGDBIAAAADBVAAAGgAACCAADASAmAAwBsAAARCAQiBCAIACAAAgIAAIiAAECIgIJiKAERKAMAAkwBEIiAfAwPAO4AADAAAYAADAAAYAADAAAAAAAAAAAA==

> <PUBCHEM_IUPAC_OPENEYE_NAME>
13-hydroxy-10,16-di(pyren-1-yl)-12,14-dioxa-13lambda5-phosphapentacyclo[13.8.0.02,11.03,8.018,23]tricosa-1(15),2(11),3,5,7,9,16,18,20,22-decaene 13-oxide

> <PUBCHEM_IUPAC_CAS_NAME>
13-hydroxy-10,16-bis(1-pyrenyl)-12,14-dioxa-13lambda5-phosphapentacyclo[13.8.0.02,11.03,8.018,23]tricosa-1(15),2(11),3,5,7,9,16,18,20,22-decaene 13-oxide

> <PUBCHEM_IUPAC_NAME_MARKUP>
13-hydroxy-10,16-di(pyren-1-yl)-12,14-dioxa-13&lambda;<SUP>5</SUP>-phosphapentacyclo[13.8.0.0<SUP>2,11</SUP>.0<SUP>3,8</SUP>.0<SUP>18,23</SUP>]tricosa-1(15),2(11),3,5,7,9,16,18,20,22-decaene 13-oxide

> <PUBCHEM_IUPAC_NAME>
13-hydroxy-10,16-di(pyren-1-yl)-12,14-dioxa-13lambda5-phosphapentacyclo[13.8.0.02,11.03,8.018,23]tricosa-1(15),2(11),3,5,7,9,16,18,20,22-decaene 13-oxide

> <PUBCHEM_IUPAC_SYSTEMATIC_NAME>
13-oxidanyl-10,16-di(pyren-1-yl)-12,14-dioxa-13lambda5-phosphapentacyclo[13.8.0.02,11.03,8.018,23]tricosa-1(15),2(11),3,5,7,9,16,18,20,22-decaene 13-oxide

> <PUBCHEM_IUPAC_TRADITIONAL_NAME>
13-hydroxy-10,16-di(pyren-1-yl)-12,14-dioxa-13lambda5-phosphapentacyclo[13.8.0.02,11.03,8.018,23]tricosa-1(15),2(11),3,5,7,9,16,18,20,22-decaene 13-oxide

> <PUBCHEM_IUPAC_INCHI>
InChI=1S/C52H29O4P/c53-57(54)55-51-43(39-23-19-33-17-15-29-9-5-11-31-21-25-41(39)47(33)45(29)31)27-35-7-1-3-13-37(35)49(51)50-38-14-4-2-8-36(38)28-44(52(50)56-57)40-24-20-34-18-16-30-10-6-12-32-22-26-42(40)48(34)46(30)32/h1-28H,(H,53,54)

> <PUBCHEM_IUPAC_INCHIKEY>
BURAIYJGBUYIQJ-UHFFFAOYSA-N

> <PUBCHEM_XLOGP3_AA>
14.3

> <PUBCHEM_EXACT_MASS>
748.180346

> <PUBCHEM_MOLECULAR_FORMULA>
C52H29O4P

> <PUBCHEM_MOLECULAR_WEIGHT>
748.8

> <PUBCHEM_OPENEYE_CAN_SMILES>
C1=CC=C2C(=C1)C=C(C3=C2C4=C(C(=CC5=CC=CC=C54)C6=C7C=CC8=CC=CC9=C8C7=C(C=C9)C=C6)OP(=O)(O3)O)C1=C2C=CC3=CC=CC4=C3C2=C(C=C4)C=C1

> <PUBCHEM_OPENEYE_ISO_SMILES>
C1=CC=C2C(=C1)C=C(C3=C2C4=C(C(=CC5=CC=CC=C54)C6=C7C=CC8=CC=CC9=C8C7=C(C=C9)C=C6)OP(=O)(O3)O)C1=C2C=CC3=CC=CC4=C3C2=C(C=C4)C=C1

> <PUBCHEM_CACTVS_TPSA>
55.8

> <PUBCHEM_MONOISOTOPIC_WEIGHT>
748.180346

> <PUBCHEM_TOTAL_CHARGE>
0

> <PUBCHEM_HEAVY_ATOM_COUNT>
57

> <PUBCHEM_ATOM_DEF_STEREO_COUNT>
0

> <PUBCHEM_ATOM_UDEF_STEREO_COUNT>
0

> <PUBCHEM_BOND_DEF_STEREO_COUNT>
0

> <PUBCHEM_BOND_UDEF_STEREO_COUNT>
0

> <PUBCHEM_ISOTOPIC_ATOM_COUNT>
0

> <PUBCHEM_COMPONENT_COUNT>
1

> <PUBCHEM_CACTVS_TAUTO_COUNT>
-1

> <PUBCHEM_COORDINATE_TYPE>
1
5
255

> <PUBCHEM_BONDANNOTATIONS>
12  16  8
12  30  8
13  17  8
13  31  8
14  16  8
14  20  8
14  24  8
15  17  8
15  21  8
15  25  8
16  34  8
17  35  8
18  22  8
18  40  8
19  23  8
19  41  8
20  28  8
20  32  8
21  29  8
21  33  8
22  26  8
22  46  8
23  27  8
23  47  8
24  36  8
24  42  8
25  37  8
25  43  8
28  38  8
28  48  8
29  39  8
29  49  8
30  36  8
31  37  8
32  44  8
32  50  8
33  45  8
33  51  8
34  38  8
35  39  8
40  52  8
41  53  8
42  44  8
43  45  8
46  56  8
47  57  8
48  54  8
49  55  8
50  54  8
51  55  8
52  56  8
53  57  8
6  10  8
6  18  8
7  11  8
7  19  8
8  10  8
8  26  8
9  11  8
9  27  8

$$$$
