139224813
  -OEChem-04302101323D

 74 80  0     0  0  0  0  0  0999 V2000
   -0.0375   -1.9915   -0.0671 P   0  0  0  0  0  0  0  0  0  0  0  0
   -0.9749   -1.0164    0.8333 O   0  0  0  0  0  0  0  0  0  0  0  0
    0.9951   -1.0203   -0.8634 O   0  0  0  0  0  0  0  0  0  0  0  0
    0.9003   -2.7188    1.0346 O   0  0  0  0  0  0  0  0  0  0  0  0
   -0.7849   -2.9424   -0.9579 O   0  0  0  0  0  0  0  0  0  0  0  0
   -3.1358   -0.5808    2.7388 O   0  0  0  0  0  0  0  0  0  0  0  0
    3.1466   -0.5649   -2.7398 O   0  0  0  0  0  0  0  0  0  0  0  0
   -4.3903   -1.5821   -1.7952 O   0  0  0  0  0  0  0  0  0  0  0  0
    4.3840   -1.5756    1.7969 O   0  0  0  0  0  0  0  0  0  0  0  0
   -0.7252    1.1394   -0.1994 C   0  0  0  0  0  0  0  0  0  0  0  0
    0.7150    1.1370    0.1887 C   0  0  0  0  0  0  0  0  0  0  0  0
   -1.5416    0.0697    0.2155 C   0  0  0  0  0  0  0  0  0  0  0  0
    1.5350    0.0676   -0.2232 C   0  0  0  0  0  0  0  0  0  0  0  0
   -1.3188    2.1662   -0.9973 C   0  0  0  0  0  0  0  0  0  0  0  0
    1.3031    2.1635    0.9936 C   0  0  0  0  0  0  0  0  0  0  0  0
   -2.9109    0.0444   -0.0119 C   0  0  0  0  0  0  0  0  0  0  0  0
    2.9042    0.0494    0.0120 C   0  0  0  0  0  0  0  0  0  0  0  0
   -2.7208    2.1324   -1.2345 C   0  0  0  0  0  0  0  0  0  0  0  0
    2.7035    2.1324    1.2390 C   0  0  0  0  0  0  0  0  0  0  0  0
   -3.4976    1.0838   -0.7211 C   0  0  0  0  0  0  0  0  0  0  0  0
    3.4851    1.0877    0.7277 C   0  0  0  0  0  0  0  0  0  0  0  0
   -3.7394   -1.0480    0.4580 C   0  0  0  0  0  0  0  0  0  0  0  0
    3.7414   -1.0370   -0.4577 C   0  0  0  0  0  0  0  0  0  0  0  0
   -0.5900    3.2240   -1.5947 C   0  0  0  0  0  0  0  0  0  0  0  0
    0.5697    3.2186    1.5910 C   0  0  0  0  0  0  0  0  0  0  0  0
   -3.3342    3.1425   -1.9941 C   0  0  0  0  0  0  0  0  0  0  0  0
    3.3112    3.1415    2.0047 C   0  0  0  0  0  0  0  0  0  0  0  0
   -1.2145    4.2169   -2.3525 C   0  0  0  0  0  0  0  0  0  0  0  0
    1.1882    4.2108    2.3550 C   0  0  0  0  0  0  0  0  0  0  0  0
   -2.5873    4.1798   -2.5461 C   0  0  0  0  0  0  0  0  0  0  0  0
    2.5599    4.1759    2.5557 C   0  0  0  0  0  0  0  0  0  0  0  0
   -3.8235   -1.3217    1.8232 C   0  0  0  0  0  0  0  0  0  0  0  0
    3.8339   -1.3053   -1.8234 C   0  0  0  0  0  0  0  0  0  0  0  0
   -4.4532   -1.8248   -0.4545 C   0  0  0  0  0  0  0  0  0  0  0  0
    4.4551   -1.8131    0.4555 C   0  0  0  0  0  0  0  0  0  0  0  0
   -4.6214   -2.3726    2.2759 C   0  0  0  0  0  0  0  0  0  0  0  0
    4.6401   -2.3500   -2.2759 C   0  0  0  0  0  0  0  0  0  0  0  0
   -5.2512   -2.8756   -0.0019 C   0  0  0  0  0  0  0  0  0  0  0  0
    5.2612   -2.8578    0.0031 C   0  0  0  0  0  0  0  0  0  0  0  0
   -5.3351   -3.1497    1.3633 C   0  0  0  0  0  0  0  0  0  0  0  0
    5.3535   -3.1263   -1.3625 C   0  0  0  0  0  0  0  0  0  0  0  0
   -3.7969    0.5646    3.2711 C   0  0  0  0  0  0  0  0  0  0  0  0
    3.8040    0.5861   -3.2647 C   0  0  0  0  0  0  0  0  0  0  0  0
   -5.1577   -2.4337   -2.6428 C   0  0  0  0  0  0  0  0  0  0  0  0
    5.1520   -2.4260    2.6451 C   0  0  0  0  0  0  0  0  0  0  0  0
   -4.5731    1.0824   -0.8983 H   0  0  0  0  0  0  0  0  0  0  0  0
    4.5597    1.0886    0.9099 H   0  0  0  0  0  0  0  0  0  0  0  0
    0.4905    3.2886   -1.4869 H   0  0  0  0  0  0  0  0  0  0  0  0
   -0.5103    3.2819    1.4787 H   0  0  0  0  0  0  0  0  0  0  0  0
   -4.4080    3.1260   -2.1720 H   0  0  0  0  0  0  0  0  0  0  0  0
    4.3842    3.1263    2.1883 H   0  0  0  0  0  0  0  0  0  0  0  0
   -0.6237    5.0155   -2.7914 H   0  0  0  0  0  0  0  0  0  0  0  0
    0.5934    5.0068    2.7932 H   0  0  0  0  0  0  0  0  0  0  0  0
   -3.0768    4.9502   -3.1342 H   0  0  0  0  0  0  0  0  0  0  0  0
    3.0449    4.9455    3.1485 H   0  0  0  0  0  0  0  0  0  0  0  0
   -4.6911   -2.5930    3.3376 H   0  0  0  0  0  0  0  0  0  0  0  0
    4.7164   -2.5662   -3.3381 H   0  0  0  0  0  0  0  0  0  0  0  0
   -5.8345   -3.5234   -0.6466 H   0  0  0  0  0  0  0  0  0  0  0  0
    5.8449   -3.5047    0.6485 H   0  0  0  0  0  0  0  0  0  0  0  0
    0.5458   -3.4931    1.5211 H   0  0  0  0  0  0  0  0  0  0  0  0
   -5.9557   -3.9679    1.7171 H   0  0  0  0  0  0  0  0  0  0  0  0
    5.9805   -3.9397   -1.7161 H   0  0  0  0  0  0  0  0  0  0  0  0
   -4.6762    0.2621    3.8485 H   0  0  0  0  0  0  0  0  0  0  0  0
   -3.1016    1.0803    3.9392 H   0  0  0  0  0  0  0  0  0  0  0  0
   -4.0920    1.2555    2.4755 H   0  0  0  0  0  0  0  0  0  0  0  0
    4.0911    1.2758   -2.4652 H   0  0  0  0  0  0  0  0  0  0  0  0
    4.6879    0.2906   -3.8387 H   0  0  0  0  0  0  0  0  0  0  0  0
    3.1092    1.1004   -3.9344 H   0  0  0  0  0  0  0  0  0  0  0  0
   -4.8146   -3.4727   -2.5912 H   0  0  0  0  0  0  0  0  0  0  0  0
   -6.2317   -2.3355   -2.4509 H   0  0  0  0  0  0  0  0  0  0  0  0
   -4.9898   -2.0975   -3.6714 H   0  0  0  0  0  0  0  0  0  0  0  0
    6.2264   -2.3211    2.4589 H   0  0  0  0  0  0  0  0  0  0  0  0
    4.8149   -3.4667    2.5881 H   0  0  0  0  0  0  0  0  0  0  0  0
    4.9771   -2.0944    3.6741 H   0  0  0  0  0  0  0  0  0  0  0  0
  1  2  1  0  0  0  0
  1  3  1  0  0  0  0
  1  4  1  0  0  0  0
  1  5  2  0  0  0  0
  2 12  1  0  0  0  0
  3 13  1  0  0  0  0
  4 60  1  0  0  0  0
  6 32  1  0  0  0  0
  6 42  1  0  0  0  0
  7 33  1  0  0  0  0
  7 43  1  0  0  0  0
  8 34  1  0  0  0  0
  8 44  1  0  0  0  0
  9 35  1  0  0  0  0
  9 45  1  0  0  0  0
 10 11  1  0  0  0  0
 10 12  2  0  0  0  0
 10 14  1  0  0  0  0
 11 13  2  0  0  0  0
 11 15  1  0  0  0  0
 12 16  1  0  0  0  0
 13 17  1  0  0  0  0
 14 18  1  0  0  0  0
 14 24  2  0  0  0  0
 15 19  1  0  0  0  0
 15 25  2  0  0  0  0
 16 20  2  0  0  0  0
 16 22  1  0  0  0  0
 17 21  2  0  0  0  0
 17 23  1  0  0  0  0
 18 20  1  0  0  0  0
 18 26  2  0  0  0  0
 19 21  1  0  0  0  0
 19 27  2  0  0  0  0
 20 46  1  0  0  0  0
 21 47  1  0  0  0  0
 22 32  2  0  0  0  0
 22 34  1  0  0  0  0
 23 33  2  0  0  0  0
 23 35  1  0  0  0  0
 24 28  1  0  0  0  0
 24 48  1  0  0  0  0
 25 29  1  0  0  0  0
 25 49  1  0  0  0  0
 26 30  1  0  0  0  0
 26 50  1  0  0  0  0
 27 31  1  0  0  0  0
 27 51  1  0  0  0  0
 28 30  2  0  0  0  0
 28 52  1  0  0  0  0
 29 31  2  0  0  0  0
 29 53  1  0  0  0  0
 30 54  1  0  0  0  0
 31 55  1  0  0  0  0
 32 36  1  0  0  0  0
 33 37  1  0  0  0  0
 34 38  2  0  0  0  0
 35 39  2  0  0  0  0
 36 40  2  0  0  0  0
 36 56  1  0  0  0  0
 37 41  2  0  0  0  0
 37 57  1  0  0  0  0
 38 40  1  0  0  0  0
 38 58  1  0  0  0  0
 39 41  1  0  0  0  0
 39 59  1  0  0  0  0
 40 61  1  0  0  0  0
 41 62  1  0  0  0  0
 42 63  1  0  0  0  0
 42 64  1  0  0  0  0
 42 65  1  0  0  0  0
 43 66  1  0  0  0  0
 43 67  1  0  0  0  0
 43 68  1  0  0  0  0
 44 69  1  0  0  0  0
 44 70  1  0  0  0  0
 44 71  1  0  0  0  0
 45 72  1  0  0  0  0
 45 73  1  0  0  0  0
 45 74  1  0  0  0  0
M  END
> <PUBCHEM_COMPOUND_CID>
139224813

> <PUBCHEM_CONFORMER_RMSD>
1

> <PUBCHEM_CONFORMER_DIVERSEORDER>
1
2

> <PUBCHEM_MMFF94_PARTIAL_CHARGES>
52
1 1.51
12 0.08
13 0.08
2 -0.35
20 -0.15
21 -0.15
24 -0.15
25 -0.15
26 -0.15
27 -0.15
28 -0.15
29 -0.15
3 -0.35
30 -0.15
31 -0.15
32 0.08
33 0.08
34 0.08
35 0.08
36 -0.15
37 -0.15
38 -0.15
39 -0.15
4 -0.77
40 -0.15
41 -0.15
42 0.28
43 0.28
44 0.28
45 0.28
46 0.15
47 0.15
48 0.15
49 0.15
5 -0.7
50 0.15
51 0.15
52 0.15
53 0.15
54 0.15
55 0.15
56 0.15
57 0.15
58 0.15
59 0.15
6 -0.36
60 0.5
61 0.15
62 0.15
7 -0.36
8 -0.36
9 -0.36

> <PUBCHEM_EFFECTIVE_ROTOR_COUNT>
6.4

> <PUBCHEM_PHARMACOPHORE_FEATURES>
13
1 4 acceptor
1 5 acceptor
1 6 acceptor
1 7 acceptor
1 8 acceptor
1 9 acceptor
6 10 12 14 16 18 20 rings
6 11 13 15 17 19 21 rings
6 14 18 24 26 28 30 rings
6 15 19 25 27 29 31 rings
6 22 32 34 36 38 40 rings
6 23 33 35 37 39 41 rings
7 1 2 3 10 11 12 13 rings

> <PUBCHEM_HEAVY_ATOM_COUNT>
45

> <PUBCHEM_ATOM_DEF_STEREO_COUNT>
0

> <PUBCHEM_ATOM_UDEF_STEREO_COUNT>
0

> <PUBCHEM_BOND_DEF_STEREO_COUNT>
0

> <PUBCHEM_BOND_UDEF_STEREO_COUNT>
0

> <PUBCHEM_ISOTOPIC_ATOM_COUNT>
0

> <PUBCHEM_COMPONENT_COUNT>
1

> <PUBCHEM_CACTVS_TAUTO_COUNT>
-1

> <PUBCHEM_CONFORMER_ID>
084C66ED00000001

> <PUBCHEM_MMFF94_ENERGY>
197.2817

> <PUBCHEM_FEATURE_SELFOVERLAP>
66.072

> <PUBCHEM_SHAPE_FINGERPRINT>
10032420 55 17900798497641561749
10928967 22 18410867559051989547
11093857 51 17759532461805082236
11445158 3 17775007920282267988
11991303 11 17387976370457881549
12403259 226 18410853265399873543
12422481 6 14907081287169007497
12633046 712 18271537394056159045
13690498 29 18335149643744723694
15324884 4 18263070162927975405
15351339 4 17116045020958432297
15448158 91 18341324569977085550
15790856 291 17910944756288073893
15970540 1 17703496796535074231
19315092 285 17843948463686356347
19319366 153 16827282438202719717
22440779 20 18117588191509633393
2260408 40 18123768705715090993
25223398 141 18041548144648248077
44317340 157 11242512455042255619
508706 21 18263357001954803167
613672 6 17914599580646910870
9658208 31 18189322486569783821
9831232 110 17753897422443935299

> <PUBCHEM_SHAPE_MULTIPOLES>
882.97
11.85
5.91
3.35
0.07
4.47
0.02
-13.37
-0.03
-0.08
-0.01
0.01
1.41
3.95

> <PUBCHEM_SHAPE_SELFOVERLAP>
1989.64

> <PUBCHEM_SHAPE_VOLUME>
465.7

> <PUBCHEM_COORDINATE_TYPE>
2
5
10

$$$$
