99770987
  -OEChem-04302101162D

106112  0     0  0  0  0  0  0999 V2000
    7.8928    0.8976    0.0000 P   0  0  0  0  0  0  0  0  0  0  0  0
    8.5162    0.1158    0.0000 O   0  0  0  0  0  0  0  0  0  0  0  0
    6.8928    0.8976    0.0000 O   0  0  0  0  0  0  0  0  0  0  0  0
    8.6746    1.5211    0.0000 O   0  0  0  0  0  0  0  0  0  0  0  0
    7.8928    1.8976    0.0000 O   0  0  0  0  0  0  0  0  0  0  0  0
   11.0815    1.4520    0.0000 C   0  0  0  0  0  0  0  0  0  0  0  0
    2.9521    3.0045    0.0000 C   0  0  0  0  0  0  0  0  0  0  0  0
   12.6205   -1.6515    0.0000 C   0  0  0  0  0  0  0  0  0  0  0  0
    6.3380    3.7363    0.0000 C   0  0  0  0  0  0  0  0  0  0  0  0
   11.0183    0.4540    0.0000 C   0  0  0  0  0  0  0  0  0  0  0  0
    3.9042    2.6988    0.0000 C   0  0  0  0  0  0  0  0  0  0  0  0
   11.7878   -1.0978    0.0000 C   0  0  0  0  0  0  0  0  0  0  0  0
    5.5972    3.0646    0.0000 C   0  0  0  0  0  0  0  0  0  0  0  0
   10.0592   -0.9883    0.0000 C   0  0  0  0  0  0  0  0  0  0  0  0
    5.0675    1.4155    0.0000 C   0  0  0  0  0  0  0  0  0  0  0  0
   11.8510   -0.0998    0.0000 C   0  0  0  0  0  0  0  0  0  0  0  0
    4.6451    3.3704    0.0000 C   0  0  0  0  0  0  0  0  0  0  0  0
    7.3928   -1.2930    0.0000 C   0  0  0  0  0  0  0  0  0  0  0  0
    6.4918   -0.8592    0.0000 C   0  0  0  0  0  0  0  0  0  0  0  0
    9.1633   -1.4326    0.0000 C   0  0  0  0  0  0  0  0  0  0  0  0
    5.2788    0.4381    0.0000 C   0  0  0  0  0  0  0  0  0  0  0  0
   10.1224    0.0097    0.0000 C   0  0  0  0  0  0  0  0  0  0  0  0
    4.1154    1.7213    0.0000 C   0  0  0  0  0  0  0  0  0  0  0  0
   10.8919   -1.5420    0.0000 C   0  0  0  0  0  0  0  0  0  0  0  0
    5.8084    2.0872    0.0000 C   0  0  0  0  0  0  0  0  0  0  0  0
    8.2937   -0.8592    0.0000 C   0  0  0  0  0  0  0  0  0  0  0  0
    6.2693    0.1158    0.0000 C   0  0  0  0  0  0  0  0  0  0  0  0
   11.1447    2.4500    0.0000 C   0  0  0  0  0  0  0  0  0  0  0  0
   12.0795    1.3888    0.0000 C   0  0  0  0  0  0  0  0  0  0  0  0
   10.0835    1.5152    0.0000 C   0  0  0  0  0  0  0  0  0  0  0  0
    2.0000    3.3103    0.0000 C   0  0  0  0  0  0  0  0  0  0  0  0
    3.2579    3.9566    0.0000 C   0  0  0  0  0  0  0  0  0  0  0  0
    2.6463    2.0524    0.0000 C   0  0  0  0  0  0  0  0  0  0  0  0
   13.4532   -2.2052    0.0000 C   0  0  0  0  0  0  0  0  0  0  0  0
   13.1742   -0.8188    0.0000 C   0  0  0  0  0  0  0  0  0  0  0  0
   12.0668   -2.4842    0.0000 C   0  0  0  0  0  0  0  0  0  0  0  0
    7.0789    4.4079    0.0000 C   0  0  0  0  0  0  0  0  0  0  0  0
    5.6664    4.4771    0.0000 C   0  0  0  0  0  0  0  0  0  0  0  0
    7.0097    2.9954    0.0000 C   0  0  0  0  0  0  0  0  0  0  0  0
    7.2989   -2.3304    0.0000 C   0  0  0  0  0  0  0  0  0  0  0  0
    5.7392   -1.5793    0.0000 C   0  0  0  0  0  0  0  0  0  0  0  0
    9.0935   -2.4719    0.0000 C   0  0  0  0  0  0  0  0  0  0  0  0
    4.5098   -0.2645    0.0000 C   0  0  0  0  0  0  0  0  0  0  0  0
    8.1550   -2.9238    0.0000 C   0  0  0  0  0  0  0  0  0  0  0  0
    4.7415   -1.2800    0.0000 C   0  0  0  0  0  0  0  0  0  0  0  0
    6.3107   -2.7785    0.0000 C   0  0  0  0  0  0  0  0  0  0  0  0
    5.4435   -2.6232    0.0000 C   0  0  0  0  0  0  0  0  0  0  0  0
    8.0823   -4.0064    0.0000 C   0  0  0  0  0  0  0  0  0  0  0  0
    3.6819   -1.5133    0.0000 C   0  0  0  0  0  0  0  0  0  0  0  0
    6.2130   -3.8590    0.0000 C   0  0  0  0  0  0  0  0  0  0  0  0
    4.2951   -3.0339    0.0000 C   0  0  0  0  0  0  0  0  0  0  0  0
    7.1047   -4.4771    0.0000 C   0  0  0  0  0  0  0  0  0  0  0  0
    3.4566   -2.3971    0.0000 C   0  0  0  0  0  0  0  0  0  0  0  0
   12.4064    0.1757    0.0000 H   0  0  0  0  0  0  0  0  0  0  0  0
    4.5141    3.9764    0.0000 H   0  0  0  0  0  0  0  0  0  0  0  0
    9.6061    0.3530    0.0000 H   0  0  0  0  0  0  0  0  0  0  0  0
    3.6561    1.3049    0.0000 H   0  0  0  0  0  0  0  0  0  0  0  0
   10.8527   -2.1608    0.0000 H   0  0  0  0  0  0  0  0  0  0  0  0
    6.3987    1.8976    0.0000 H   0  0  0  0  0  0  0  0  0  0  0  0
   11.7634    2.4108    0.0000 H   0  0  0  0  0  0  0  0  0  0  0  0
   11.1839    3.0687    0.0000 H   0  0  0  0  0  0  0  0  0  0  0  0
   10.5259    2.4891    0.0000 H   0  0  0  0  0  0  0  0  0  0  0  0
   12.0403    0.7700    0.0000 H   0  0  0  0  0  0  0  0  0  0  0  0
   12.6982    1.3496    0.0000 H   0  0  0  0  0  0  0  0  0  0  0  0
   12.1187    2.0075    0.0000 H   0  0  0  0  0  0  0  0  0  0  0  0
   10.1227    2.1339    0.0000 H   0  0  0  0  0  0  0  0  0  0  0  0
    9.4647    1.5543    0.0000 H   0  0  0  0  0  0  0  0  0  0  0  0
   10.0443    0.8964    0.0000 H   0  0  0  0  0  0  0  0  0  0  0  0
    2.1896    3.9006    0.0000 H   0  0  0  0  0  0  0  0  0  0  0  0
    1.4097    3.4999    0.0000 H   0  0  0  0  0  0  0  0  0  0  0  0
    1.8104    2.7200    0.0000 H   0  0  0  0  0  0  0  0  0  0  0  0
    3.8482    3.7671    0.0000 H   0  0  0  0  0  0  0  0  0  0  0  0
    3.4475    4.5470    0.0000 H   0  0  0  0  0  0  0  0  0  0  0  0
    2.6676    4.1462    0.0000 H   0  0  0  0  0  0  0  0  0  0  0  0
    2.0560    2.2420    0.0000 H   0  0  0  0  0  0  0  0  0  0  0  0
    2.4567    1.4621    0.0000 H   0  0  0  0  0  0  0  0  0  0  0  0
    3.2366    1.8629    0.0000 H   0  0  0  0  0  0  0  0  0  0  0  0
   13.1099   -2.7215    0.0000 H   0  0  0  0  0  0  0  0  0  0  0  0
   13.9695   -2.5485    0.0000 H   0  0  0  0  0  0  0  0  0  0  0  0
   13.7965   -1.6890    0.0000 H   0  0  0  0  0  0  0  0  0  0  0  0
   13.6905   -1.1621    0.0000 H   0  0  0  0  0  0  0  0  0  0  0  0
   13.5175   -0.3025    0.0000 H   0  0  0  0  0  0  0  0  0  0  0  0
   12.6579   -0.4755    0.0000 H   0  0  0  0  0  0  0  0  0  0  0  0
   11.5505   -2.1409    0.0000 H   0  0  0  0  0  0  0  0  0  0  0  0
   11.7234   -3.0005    0.0000 H   0  0  0  0  0  0  0  0  0  0  0  0
   12.5830   -2.8275    0.0000 H   0  0  0  0  0  0  0  0  0  0  0  0
    7.4953    3.9486    0.0000 H   0  0  0  0  0  0  0  0  0  0  0  0
    7.5382    4.8244    0.0000 H   0  0  0  0  0  0  0  0  0  0  0  0
    6.6625    4.8673    0.0000 H   0  0  0  0  0  0  0  0  0  0  0  0
    6.1257    4.8936    0.0000 H   0  0  0  0  0  0  0  0  0  0  0  0
    5.2500    4.9365    0.0000 H   0  0  0  0  0  0  0  0  0  0  0  0
    5.2070    4.0607    0.0000 H   0  0  0  0  0  0  0  0  0  0  0  0
    6.5504    2.5790    0.0000 H   0  0  0  0  0  0  0  0  0  0  0  0
    7.4261    2.5361    0.0000 H   0  0  0  0  0  0  0  0  0  0  0  0
    7.4690    3.4118    0.0000 H   0  0  0  0  0  0  0  0  0  0  0  0
    9.6071   -2.8192    0.0000 H   0  0  0  0  0  0  0  0  0  0  0  0
    3.9180   -0.0794    0.0000 H   0  0  0  0  0  0  0  0  0  0  0  0
    5.8053   -2.4194    0.0000 H   0  0  0  0  0  0  0  0  0  0  0  0
    5.8964   -3.0466    0.0000 H   0  0  0  0  0  0  0  0  0  0  0  0
    8.5959   -4.3537    0.0000 H   0  0  0  0  0  0  0  0  0  0  0  0
    3.2508   -1.0677    0.0000 H   0  0  0  0  0  0  0  0  0  0  0  0
    5.6513   -4.1216    0.0000 H   0  0  0  0  0  0  0  0  0  0  0  0
    4.2006   -3.6466    0.0000 H   0  0  0  0  0  0  0  0  0  0  0  0
    7.0560   -5.0952    0.0000 H   0  0  0  0  0  0  0  0  0  0  0  0
    2.8712   -2.6015    0.0000 H   0  0  0  0  0  0  0  0  0  0  0  0
    8.5822    2.1342    0.0000 H   0  0  0  0  0  0  0  0  0  0  0  0
  1  2  1  0  0  0  0
  1  3  1  0  0  0  0
  1  4  1  0  0  0  0
  1  5  2  0  0  0  0
  2 26  1  0  0  0  0
  3 27  1  0  0  0  0
  4106  1  0  0  0  0
  6 10  1  0  0  0  0
  6 28  1  0  0  0  0
  6 29  1  0  0  0  0
  6 30  1  0  0  0  0
  7 11  1  0  0  0  0
  7 31  1  0  0  0  0
  7 32  1  0  0  0  0
  7 33  1  0  0  0  0
  8 12  1  0  0  0  0
  8 34  1  0  0  0  0
  8 35  1  0  0  0  0
  8 36  1  0  0  0  0
  9 13  1  0  0  0  0
  9 37  1  0  0  0  0
  9 38  1  0  0  0  0
  9 39  1  0  0  0  0
 10 16  2  0  0  0  0
 10 22  1  0  0  0  0
 11 17  2  0  0  0  0
 11 23  1  0  0  0  0
 12 16  1  0  0  0  0
 12 24  2  0  0  0  0
 13 17  1  0  0  0  0
 13 25  2  0  0  0  0
 14 20  1  0  0  0  0
 14 22  2  0  0  0  0
 14 24  1  0  0  0  0
 15 21  1  0  0  0  0
 15 23  2  0  0  0  0
 15 25  1  0  0  0  0
 16 54  1  0  0  0  0
 17 55  1  0  0  0  0
 18 19  1  0  0  0  0
 18 26  2  0  0  0  0
 18 40  1  0  0  0  0
 19 27  2  0  0  0  0
 19 41  1  0  0  0  0
 20 26  1  0  0  0  0
 20 42  2  0  0  0  0
 21 27  1  0  0  0  0
 21 43  2  0  0  0  0
 22 56  1  0  0  0  0
 23 57  1  0  0  0  0
 24 58  1  0  0  0  0
 25 59  1  0  0  0  0
 28 60  1  0  0  0  0
 28 61  1  0  0  0  0
 28 62  1  0  0  0  0
 29 63  1  0  0  0  0
 29 64  1  0  0  0  0
 29 65  1  0  0  0  0
 30 66  1  0  0  0  0
 30 67  1  0  0  0  0
 30 68  1  0  0  0  0
 31 69  1  0  0  0  0
 31 70  1  0  0  0  0
 31 71  1  0  0  0  0
 32 72  1  0  0  0  0
 32 73  1  0  0  0  0
 32 74  1  0  0  0  0
 33 75  1  0  0  0  0
 33 76  1  0  0  0  0
 33 77  1  0  0  0  0
 34 78  1  0  0  0  0
 34 79  1  0  0  0  0
 34 80  1  0  0  0  0
 35 81  1  0  0  0  0
 35 82  1  0  0  0  0
 35 83  1  0  0  0  0
 36 84  1  0  0  0  0
 36 85  1  0  0  0  0
 36 86  1  0  0  0  0
 37 87  1  0  0  0  0
 37 88  1  0  0  0  0
 37 89  1  0  0  0  0
 38 90  1  0  0  0  0
 38 91  1  0  0  0  0
 38 92  1  0  0  0  0
 39 93  1  0  0  0  0
 39 94  1  0  0  0  0
 39 95  1  0  0  0  0
 40 44  1  0  0  0  0
 40 46  2  0  0  0  0
 41 45  1  0  0  0  0
 41 47  2  0  0  0  0
 42 44  1  0  0  0  0
 42 96  1  0  0  0  0
 43 45  1  0  0  0  0
 43 97  1  0  0  0  0
 44 48  2  0  0  0  0
 45 49  2  0  0  0  0
 46 50  1  0  0  0  0
 46 98  1  0  0  0  0
 47 51  1  0  0  0  0
 47 99  1  0  0  0  0
 48 52  1  0  0  0  0
 48100  1  0  0  0  0
 49 53  1  0  0  0  0
 49101  1  0  0  0  0
 50 52  2  0  0  0  0
 50102  1  0  0  0  0
 51 53  2  0  0  0  0
 51103  1  0  0  0  0
 52104  1  0  0  0  0
 53105  1  0  0  0  0
M  END
> <PUBCHEM_COMPOUND_CID>
99770987

> <PUBCHEM_COMPOUND_CANONICALIZED>
1

> <PUBCHEM_CACTVS_COMPLEXITY>
1170

> <PUBCHEM_CACTVS_HBOND_ACCEPTOR>
4

> <PUBCHEM_CACTVS_HBOND_DONOR>
1

> <PUBCHEM_CACTVS_ROTATABLE_BOND>
6

> <PUBCHEM_CACTVS_SUBSKEYS>
AAADcfB8OAIAAAAAAAAAAAAAAAAAAAAAAAAwYMGDBIAAAADBVAAAGgAACCAADgSAmAAyBsAAARCAQiBCAIACAAAgIAAIiAAECIgIJiKAERKAMAAkwBEIiAfAwPAP4AADAAAYAADAAAYAADAAAAAAAAAAAA==

> <PUBCHEM_IUPAC_OPENEYE_NAME>
10,16-bis(3,5-ditert-butylphenyl)-13-hydroxy-12,14-dioxa-13lambda5-phosphapentacyclo[13.8.0.02,11.03,8.018,23]tricosa-1(15),2(11),3,5,7,9,16,18,20,22-decaene 13-oxide

> <PUBCHEM_IUPAC_CAS_NAME>
10,16-bis(3,5-ditert-butylphenyl)-13-hydroxy-12,14-dioxa-13lambda5-phosphapentacyclo[13.8.0.02,11.03,8.018,23]tricosa-1(15),2(11),3,5,7,9,16,18,20,22-decaene 13-oxide

> <PUBCHEM_IUPAC_NAME_MARKUP>
10,16-bis(3,5-di<I>tert</I>-butylphenyl)-13-hydroxy-12,14-dioxa-13&lambda;<SUP>5</SUP>-phosphapentacyclo[13.8.0.0<SUP>2,11</SUP>.0<SUP>3,8</SUP>.0<SUP>18,23</SUP>]tricosa-1(15),2(11),3,5,7,9,16,18,20,22-decaene 13-oxide

> <PUBCHEM_IUPAC_NAME>
10,16-bis(3,5-ditert-butylphenyl)-13-hydroxy-12,14-dioxa-13lambda5-phosphapentacyclo[13.8.0.02,11.03,8.018,23]tricosa-1(15),2(11),3,5,7,9,16,18,20,22-decaene 13-oxide

> <PUBCHEM_IUPAC_SYSTEMATIC_NAME>
10,16-bis(3,5-ditert-butylphenyl)-13-oxidanyl-12,14-dioxa-13lambda5-phosphapentacyclo[13.8.0.02,11.03,8.018,23]tricosa-1(15),2(11),3,5,7,9,16,18,20,22-decaene 13-oxide

> <PUBCHEM_IUPAC_TRADITIONAL_NAME>
10,16-bis(3,5-ditert-butylphenyl)-13-hydroxy-12,14-dioxa-13lambda5-phosphapentacyclo[13.8.0.02,11.03,8.018,23]tricosa-1(15),2(11),3,5,7,9,16,18,20,22-decaene 13-oxide

> <PUBCHEM_IUPAC_INCHI>
InChI=1S/C48H53O4P/c1-45(2,3)33-21-31(22-34(27-33)46(4,5)6)39-25-29-17-13-15-19-37(29)41-42-38-20-16-14-18-30(38)26-40(44(42)52-53(49,50)51-43(39)41)32-23-35(47(7,8)9)28-36(24-32)48(10,11)12/h13-28H,1-12H3,(H,49,50)

> <PUBCHEM_IUPAC_INCHIKEY>
GEIVXBCFEGGBDI-UHFFFAOYSA-N

> <PUBCHEM_XLOGP3_AA>
14.8

> <PUBCHEM_EXACT_MASS>
724.368147

> <PUBCHEM_MOLECULAR_FORMULA>
C48H53O4P

> <PUBCHEM_MOLECULAR_WEIGHT>
724.9

> <PUBCHEM_OPENEYE_CAN_SMILES>
CC(C)(C)C1=CC(=CC(=C1)C2=CC3=CC=CC=C3C4=C2OP(=O)(OC5=C4C6=CC=CC=C6C=C5C7=CC(=CC(=C7)C(C)(C)C)C(C)(C)C)O)C(C)(C)C

> <PUBCHEM_OPENEYE_ISO_SMILES>
CC(C)(C)C1=CC(=CC(=C1)C2=CC3=CC=CC=C3C4=C2OP(=O)(OC5=C4C6=CC=CC=C6C=C5C7=CC(=CC(=C7)C(C)(C)C)C(C)(C)C)O)C(C)(C)C

> <PUBCHEM_CACTVS_TPSA>
55.8

> <PUBCHEM_MONOISOTOPIC_WEIGHT>
724.368147

> <PUBCHEM_TOTAL_CHARGE>
0

> <PUBCHEM_HEAVY_ATOM_COUNT>
53

> <PUBCHEM_ATOM_DEF_STEREO_COUNT>
0

> <PUBCHEM_ATOM_UDEF_STEREO_COUNT>
0

> <PUBCHEM_BOND_DEF_STEREO_COUNT>
0

> <PUBCHEM_BOND_UDEF_STEREO_COUNT>
0

> <PUBCHEM_ISOTOPIC_ATOM_COUNT>
0

> <PUBCHEM_COMPONENT_COUNT>
1

> <PUBCHEM_CACTVS_TAUTO_COUNT>
-1

> <PUBCHEM_COORDINATE_TYPE>
1
5
255

> <PUBCHEM_BONDANNOTATIONS>
10  16  8
10  22  8
11  17  8
11  23  8
12  16  8
12  24  8
13  17  8
13  25  8
14  22  8
14  24  8
15  23  8
15  25  8
18  26  8
18  40  8
19  27  8
19  41  8
20  26  8
20  42  8
21  27  8
21  43  8
40  44  8
40  46  8
41  45  8
41  47  8
42  44  8
43  45  8
44  48  8
45  49  8
46  50  8
47  51  8
48  52  8
49  53  8
50  52  8
51  53  8

$$$$
